<?xml version="1.0" encoding="UTF-8"?>

<!-- generated on 2023-09-05 12:32:05 by Eclipse SUMO netedit Version 1.18.0
<configuration xmlns:xsi="http://www.w3.org/2001/XMLSchema-instance" xsi:noNamespaceSchemaLocation="http://sumo.dlr.de/xsd/neteditConfiguration.xsd">

    <input>
        <sumo-net-file value="C:\Users\saiko\OneDrive\Desktop\Task1\roundabout1.net.xml"/>
    </input>

    <output>
        <output-file value="C:\Users\saiko\OneDrive\Desktop\Task1\roundabout1.net.xml"/>
    </output>

    <processing>
        <geometry.min-radius.fix.railways value="false"/>
        <geometry.max-grade.fix value="false"/>
        <offset.disable-normalization value="true"/>
        <lefthand value="0"/>
    </processing>

    <junctions>
        <no-internal-links value="false"/>
        <no-turnarounds value="true"/>
        <junctions.corner-detail value="5"/>
        <junctions.limit-turn-speed value="5.50"/>
        <rectangular-lane-cut value="0"/>
    </junctions>

    <pedestrian>
        <walkingareas value="0"/>
    </pedestrian>

</configuration>
-->

<net version="1.16" junctionCornerDetail="5" limitTurnSpeed="5.50" xmlns:xsi="http://www.w3.org/2001/XMLSchema-instance" xsi:noNamespaceSchemaLocation="http://sumo.dlr.de/xsd/net_file.xsd">

    <location netOffset="0.00,0.00" convBoundary="-100.00,-300.00,500.00,300.00" origBoundary="-10000000000.00,-10000000000.00,10000000000.00,10000000000.00" projParameter="!"/>

    <edge id=":J0_w0" function="walkingarea">
        <lane id=":J0_w0_0" index="0" allow="pedestrian" speed="2.78" length="14.80" width="2.00" shape="-100.00,-6.40 -100.00,-8.40 -100.00,8.40 -100.00,6.40"/>
    </edge>
    <edge id=":J1_0" function="internal">
        <lane id=":J1_0_0" index="0" disallow="pedestrian" speed="6.66" length="2.95" shape="97.29,9.07 96.49,7.20 95.88,6.51"/>
    </edge>
    <edge id=":J1_1" function="internal">
        <lane id=":J1_1_0" index="0" disallow="pedestrian" speed="13.89" length="17.88" shape="97.29,9.07 95.88,3.78 95.43,-0.01 95.95,-3.79 97.46,-9.05"/>
        <lane id=":J1_1_1" index="1" disallow="pedestrian" speed="13.89" length="17.88" shape="100.42,8.37 99.09,3.48 98.64,-0.03 99.13,-3.53 100.60,-8.36"/>
    </edge>
    <edge id=":J1_8" function="internal">
        <lane id=":J1_8_0" index="0" disallow="pedestrian" speed="6.66" length="4.50" shape="95.88,6.51 95.32,5.87 93.78,5.07 91.88,4.80"/>
    </edge>
    <edge id=":J1_3" function="internal">
        <lane id=":J1_3_0" index="0" disallow="pedestrian" speed="13.89" length="15.04" shape="106.88,-6.96 105.64,-2.94 105.22,-0.02 105.58,2.91 106.68,6.98"/>
        <lane id=":J1_3_1" index="1" disallow="pedestrian" speed="13.89" length="15.04" shape="103.74,-7.66 102.38,-3.23 101.93,-0.03 102.34,3.19 103.55,7.68"/>
    </edge>
    <edge id=":J1_5" function="internal">
        <lane id=":J1_5_0" index="0" disallow="pedestrian" speed="9.73" length="4.47" shape="103.74,-7.66 101.84,-3.61"/>
    </edge>
    <edge id=":J1_9" function="internal">
        <lane id=":J1_9_0" index="0" disallow="pedestrian" speed="9.73" length="11.71" shape="101.84,-3.61 99.23,-0.72 95.91,1.02 91.88,1.60"/>
    </edge>
    <edge id=":J1_6" function="internal">
        <lane id=":J1_6_0" index="0" disallow="pedestrian" speed="6.76" length="3.25" shape="91.88,-4.80 93.83,-5.07 94.98,-5.65"/>
        <lane id=":J1_6_1" index="1" disallow="pedestrian" speed="8.40" length="7.72" shape="91.88,-1.60 94.85,-2.02 97.29,-3.29 98.62,-4.75"/>
    </edge>
    <edge id=":J1_10" function="internal">
        <lane id=":J1_10_0" index="0" disallow="pedestrian" speed="6.76" length="4.32" shape="94.98,-5.65 95.41,-5.86 96.62,-7.19 97.46,-9.05"/>
    </edge>
    <edge id=":J1_11" function="internal">
        <lane id=":J1_11_0" index="0" disallow="pedestrian" speed="8.40" length="4.14" shape="98.62,-4.75 99.21,-5.40 100.60,-8.36"/>
    </edge>
    <edge id=":J1_c0" function="crossing" crossingEdges="E4 -E4">
        <lane id=":J1_c0_0" index="0" allow="pedestrian" speed="2.78" length="12.81" width="4.00" shape="107.66,4.61 95.20,7.59"/>
    </edge>
    <edge id=":J1_c1" function="crossing" crossingEdges="-E7 E7">
        <lane id=":J1_c1_0" index="0" allow="pedestrian" speed="2.78" length="12.80" width="4.00" shape="95.34,-7.62 107.76,-4.56"/>
    </edge>
    <edge id=":J1_c2" function="crossing" crossingEdges="-E0 E0">
        <lane id=":J1_c2_0" index="0" allow="pedestrian" speed="2.78" length="12.80" width="4.00" shape="93.88,6.40 93.88,-6.40"/>
    </edge>
    <edge id=":J1_w0" function="walkingarea">
        <lane id=":J1_w0_0" index="0" allow="pedestrian" speed="2.78" length="2.73" width="4.00" shape="91.88,6.40 91.88,8.40 93.78,9.91 95.71,9.35 95.66,9.53 95.39,8.56 94.92,7.78 94.33,7.18 93.63,6.75 92.81,6.49"/>
    </edge>
    <edge id=":J1_w1" function="walkingarea">
        <lane id=":J1_w1_0" index="0" allow="pedestrian" speed="2.78" length="8.18" width="4.00" shape="108.12,6.56 108.26,6.69 110.18,6.14 110.38,-6.08 108.48,-6.72 108.24,-6.50 107.54,-3.79 107.03,-1.74 106.86,0.01 107.00,1.76 107.46,3.83"/>
    </edge>
    <edge id=":J1_w2" function="walkingarea">
        <lane id=":J1_w2_0" index="0" allow="pedestrian" speed="2.78" length="2.80" width="4.00" shape="95.81,-9.56 95.87,-9.32 93.96,-9.91 91.88,-8.40 91.88,-6.40 92.85,-6.49 93.70,-6.75 94.43,-7.18 95.05,-7.79 95.55,-8.57"/>
    </edge>
    <edge id=":J2_0" function="internal">
        <lane id=":J2_0_0" index="0" disallow="pedestrian" speed="6.63" length="3.99" shape="195.20,109.10 194.89,106.99 193.97,105.37"/>
        <lane id=":J2_0_1" index="1" disallow="pedestrian" speed="8.26" length="8.74" shape="198.40,109.10 197.91,105.87 196.44,103.33 194.41,101.80"/>
    </edge>
    <edge id=":J2_8" function="internal">
        <lane id=":J2_8_0" index="0" disallow="pedestrian" speed="6.63" length="4.17" shape="193.97,105.37 192.44,104.22 190.29,103.55"/>
    </edge>
    <edge id=":J2_9" function="internal">
        <lane id=":J2_9_0" index="0" disallow="pedestrian" speed="8.26" length="4.13" shape="194.41,101.80 194.00,101.49 190.57,100.35"/>
    </edge>
    <edge id=":J2_2" function="internal">
        <lane id=":J2_2_0" index="0" disallow="pedestrian" speed="6.77" length="3.93" shape="209.57,103.26 207.48,104.01 206.16,105.10"/>
    </edge>
    <edge id=":J2_3" function="internal">
        <lane id=":J2_3_0" index="0" disallow="pedestrian" speed="13.89" length="19.17" shape="209.57,103.26 203.92,104.40 199.95,104.79 195.98,104.50 190.29,103.55"/>
        <lane id=":J2_3_1" index="1" disallow="pedestrian" speed="13.89" length="19.17" shape="209.16,100.07 203.71,101.20 199.88,101.64 196.04,101.36 190.57,100.35"/>
    </edge>
    <edge id=":J2_10" function="internal">
        <lane id=":J2_10_0" index="0" disallow="pedestrian" speed="6.77" length="4.32" shape="206.16,105.10 205.99,105.23 205.10,106.93 204.80,109.10"/>
    </edge>
    <edge id=":J2_5" function="internal">
        <lane id=":J2_5_0" index="0" disallow="pedestrian" speed="13.89" length="17.80" shape="191.15,93.94 196.21,94.90 199.77,95.20 203.32,94.81 208.35,93.70"/>
        <lane id=":J2_5_1" index="1" disallow="pedestrian" speed="13.89" length="17.80" shape="190.86,97.14 196.13,98.14 199.83,98.46 203.52,98.05 208.76,96.89"/>
    </edge>
    <edge id=":J2_7" function="internal">
        <lane id=":J2_7_0" index="0" disallow="pedestrian" speed="9.58" length="4.95" shape="190.86,97.14 195.56,98.71"/>
    </edge>
    <edge id=":J2_11" function="internal">
        <lane id=":J2_11_0" index="0" disallow="pedestrian" speed="9.58" length="12.66" shape="195.56,98.71 198.91,101.22 200.93,104.69 201.60,109.10"/>
    </edge>
    <edge id=":J2_c0" function="crossing" crossingEdges="E1 -E1">
        <lane id=":J2_c0_0" index="0" allow="pedestrian" speed="2.78" length="12.80" width="4.00" shape="206.40,107.10 193.60,107.10"/>
    </edge>
    <edge id=":J2_c1" function="crossing" crossingEdges="E5 -E5">
        <lane id=":J2_c1_0" index="0" allow="pedestrian" speed="2.78" length="12.79" width="4.00" shape="206.04,92.60 207.95,105.25"/>
    </edge>
    <edge id=":J2_c2" function="crossing" crossingEdges="-E4 E4">
        <lane id=":J2_c2_0" index="0" allow="pedestrian" speed="2.78" length="12.80" width="4.00" shape="191.98,105.48 193.43,92.77"/>
    </edge>
    <edge id=":J2_w0" function="walkingarea">
        <lane id=":J2_w0_0" index="0" allow="pedestrian" speed="2.78" length="2.97" width="4.00" shape="189.99,105.26 190.23,105.17 189.88,107.14 191.60,109.10 193.60,109.10 193.50,108.06 193.20,107.17 192.70,106.44 192.00,105.85 191.11,105.41"/>
    </edge>
    <edge id=":J2_w1" function="walkingarea">
        <lane id=":J2_w1_0" index="0" allow="pedestrian" speed="2.78" length="3.07" width="4.00" shape="206.40,109.10 208.40,109.10 210.11,106.83 209.69,104.87 209.93,104.95 208.84,105.15 207.96,105.63 207.28,106.27 206.79,107.06 206.50,108.00"/>
    </edge>
    <edge id=":J2_w2" function="walkingarea">
        <lane id=":J2_w2_0" index="0" allow="pedestrian" speed="2.78" length="10.61" width="4.00" shape="208.02,92.30 208.25,92.07 207.79,90.13 191.58,90.35 191.18,92.31 191.44,92.54 194.94,93.05 197.56,93.46 199.75,93.58 201.93,93.41 204.53,92.93"/>
    </edge>
    <edge id=":J3_w0" function="walkingarea">
        <lane id=":J3_w0_0" index="0" allow="pedestrian" speed="2.78" length="14.80" width="2.00" shape="193.60,300.00 191.60,300.00 208.40,300.00 206.40,300.00"/>
    </edge>
    <edge id=":J4_0" function="internal">
        <lane id=":J4_0_0" index="0" disallow="pedestrian" speed="13.89" length="20.31" shape="294.42,10.61 295.40,4.70 295.63,0.58 295.17,-3.53 294.06,-9.43"/>
        <lane id=":J4_0_1" index="1" disallow="pedestrian" speed="13.89" length="20.31" shape="297.68,10.55 298.50,4.58 298.66,0.44 298.24,-3.70 297.26,-9.66"/>
    </edge>
    <edge id=":J4_2" function="internal">
        <lane id=":J4_2_0" index="0" disallow="pedestrian" speed="9.78" length="5.29" shape="297.68,10.55 299.09,5.46"/>
    </edge>
    <edge id=":J4_8" function="internal">
        <lane id=":J4_8_0" index="0" disallow="pedestrian" speed="9.78" length="13.87" shape="299.09,5.46 299.16,5.24 301.71,1.44 305.35,-0.84 310.06,-1.60"/>
    </edge>
    <edge id=":J4_3" function="internal">
        <lane id=":J4_3_0" index="0" disallow="pedestrian" speed="6.88" length="4.90" shape="310.06,4.80 307.81,5.15 306.08,6.21 305.74,6.70"/>
        <lane id=":J4_3_1" index="1" disallow="pedestrian" speed="8.45" length="10.04" shape="310.06,1.60 306.58,2.16 303.90,3.82 302.01,6.61"/>
    </edge>
    <edge id=":J4_9" function="internal">
        <lane id=":J4_9_0" index="0" disallow="pedestrian" speed="6.88" length="4.11" shape="305.74,6.70 304.86,7.98 304.17,10.45"/>
    </edge>
    <edge id=":J4_10" function="internal">
        <lane id=":J4_10_0" index="0" disallow="pedestrian" speed="8.45" length="4.04" shape="302.01,6.61 300.92,10.50"/>
    </edge>
    <edge id=":J4_5" function="internal">
        <lane id=":J4_5_0" index="0" disallow="pedestrian" speed="6.96" length="4.95" shape="303.67,-10.12 304.40,-7.79 305.70,-6.13 306.06,-5.94"/>
    </edge>
    <edge id=":J4_6" function="internal">
        <lane id=":J4_6_0" index="0" disallow="pedestrian" speed="13.89" length="20.64" shape="303.67,-10.12 304.68,-4.05 305.14,0.16 304.99,4.37 304.17,10.45"/>
        <lane id=":J4_6_1" index="1" disallow="pedestrian" speed="13.89" length="20.64" shape="300.47,-9.89 301.46,-3.87 301.90,0.30 301.74,4.48 300.92,10.50"/>
    </edge>
    <edge id=":J4_11" function="internal">
        <lane id=":J4_11_0" index="0" disallow="pedestrian" speed="6.96" length="4.22" shape="306.06,-5.94 307.59,-5.13 310.06,-4.80"/>
    </edge>
    <edge id=":J4_c0" function="crossing" crossingEdges="-E5 E5">
        <lane id=":J4_c0_0" index="0" allow="pedestrian" speed="2.78" length="12.85" width="4.00" shape="306.06,8.71 293.21,8.35"/>
    </edge>
    <edge id=":J4_c1" function="crossing" crossingEdges="E2 -E2">
        <lane id=":J4_c1_0" index="0" allow="pedestrian" speed="2.78" length="12.80" width="4.00" shape="308.06,-6.40 308.06,6.40"/>
    </edge>
    <edge id=":J4_c2" function="crossing" crossingEdges="E6 -E6">
        <lane id=":J4_c2_0" index="0" allow="pedestrian" speed="2.78" length="12.77" width="4.00" shape="292.86,-7.16 305.58,-8.40"/>
    </edge>
    <edge id=":J4_w0" function="walkingarea">
        <lane id=":J4_w0_0" index="0" allow="pedestrian" speed="2.78" length="12.69" width="4.00" shape="292.67,-9.15 290.46,-9.05 291.25,-4.94 291.76,-1.86 291.98,0.70 291.90,3.27 291.51,6.36 290.79,10.47 290.79,10.47 292.75,10.83 293.16,10.35 293.56,6.22 293.95,3.15 294.02,0.59 293.79,-1.97 293.27,-5.03"/>
    </edge>
    <edge id=":J4_w1" function="walkingarea">
        <lane id=":J4_w1_0" index="0" allow="pedestrian" speed="2.78" length="3.33" width="4.00" shape="306.00,10.71 305.81,10.27 307.79,10.53 310.06,8.40 310.06,6.40 308.92,6.52 307.96,6.88 307.16,7.47 306.52,8.31 306.05,9.38"/>
    </edge>
    <edge id=":J4_w2" function="walkingarea">
        <lane id=":J4_w2_0" index="0" allow="pedestrian" speed="2.78" length="3.52" width="4.00" shape="310.06,-6.40 310.06,-8.40 307.26,-10.47 305.29,-10.14 305.38,-10.39 305.57,-9.16 306.08,-8.17 306.78,-7.39 307.68,-6.84 308.77,-6.51"/>
    </edge>
    <edge id=":J5_w0" function="walkingarea">
        <lane id=":J5_w0_0" index="0" allow="pedestrian" speed="2.78" length="14.80" width="2.00" shape="500.00,6.40 500.00,8.40 500.00,-8.40 500.00,-6.40"/>
    </edge>
    <edge id=":J6_0" function="internal">
        <lane id=":J6_0_0" index="0" disallow="pedestrian" speed="13.89" length="15.12" shape="207.16,-93.34 203.04,-94.41 200.09,-94.75 197.16,-94.35 193.09,-93.16"/>
        <lane id=":J6_0_1" index="1" disallow="pedestrian" speed="13.89" length="15.12" shape="207.81,-96.48 203.30,-97.65 200.06,-98.03 196.85,-97.60 192.38,-96.29"/>
    </edge>
    <edge id=":J6_2" function="internal">
        <lane id=":J6_2_0" index="0" disallow="pedestrian" speed="9.52" length="4.56" shape="207.81,-96.48 203.69,-98.19 203.61,-98.26"/>
    </edge>
    <edge id=":J6_8" function="internal">
        <lane id=":J6_8_0" index="0" disallow="pedestrian" speed="9.52" length="11.71" shape="203.61,-98.26 200.75,-100.71 198.99,-104.04 198.40,-108.17"/>
    </edge>
    <edge id=":J6_3" function="internal">
        <lane id=":J6_3_0" index="0" disallow="pedestrian" speed="6.64" length="3.17" shape="204.80,-108.17 205.07,-106.25 205.64,-105.17"/>
        <lane id=":J6_3_1" index="1" disallow="pedestrian" speed="8.21" length="7.77" shape="201.60,-108.17 202.03,-105.15 203.32,-102.71 204.80,-101.44"/>
    </edge>
    <edge id=":J6_9" function="internal">
        <lane id=":J6_9_0" index="0" disallow="pedestrian" speed="6.64" length="4.34" shape="205.64,-105.17 205.88,-104.71 207.23,-103.55 209.12,-102.76"/>
    </edge>
    <edge id=":J6_10" function="internal">
        <lane id=":J6_10_0" index="0" disallow="pedestrian" speed="8.21" length="4.12" shape="204.80,-101.44 205.46,-100.87 208.46,-99.62"/>
    </edge>
    <edge id=":J6_5" function="internal">
        <lane id=":J6_5_0" index="0" disallow="pedestrian" speed="6.79" length="3.17" shape="190.96,-102.56 192.82,-103.41 193.64,-104.17"/>
    </edge>
    <edge id=":J6_6" function="internal">
        <lane id=":J6_6_0" index="0" disallow="pedestrian" speed="13.89" length="17.91" shape="190.96,-102.56 196.22,-104.09 200.00,-104.60 203.81,-104.14 209.12,-102.76"/>
        <lane id=":J6_6_1" index="1" disallow="pedestrian" speed="13.89" length="17.91" shape="191.67,-99.43 196.53,-100.84 200.03,-101.32 203.55,-100.89 208.46,-99.62"/>
    </edge>
    <edge id=":J6_11" function="internal">
        <lane id=":J6_11_0" index="0" disallow="pedestrian" speed="6.79" length="4.42" shape="193.64,-104.17 194.14,-104.63 194.94,-106.22 195.20,-108.17"/>
    </edge>
    <edge id=":J6_c0" function="crossing" crossingEdges="-E6 E6">
        <lane id=":J6_c0_0" index="0" allow="pedestrian" speed="2.78" length="12.82" width="4.00" shape="207.62,-104.84 204.80,-92.33"/>
    </edge>
    <edge id=":J6_c1" function="crossing" crossingEdges="E3 -E3">
        <lane id=":J6_c1_0" index="0" allow="pedestrian" speed="2.78" length="12.80" width="4.00" shape="193.60,-106.17 206.40,-106.17"/>
    </edge>
    <edge id=":J6_c2" function="crossing" crossingEdges="E7 -E7">
        <lane id=":J6_c2_0" index="0" allow="pedestrian" speed="2.78" length="12.83" width="4.00" shape="195.48,-92.24 192.38,-104.69"/>
    </edge>
    <edge id=":J6_w0" function="walkingarea">
        <lane id=":J6_w0_0" index="0" allow="pedestrian" speed="2.78" length="8.27" width="4.00" shape="193.54,-91.76 193.36,-91.57 193.96,-89.66 206.36,-89.83 206.89,-91.76 206.75,-91.90 203.99,-92.54 201.89,-92.98 200.12,-93.12 198.36,-92.95 196.28,-92.46"/>
    </edge>
    <edge id=":J6_w1" function="walkingarea">
        <lane id=":J6_w1_0" index="0" allow="pedestrian" speed="2.78" length="2.75" width="4.00" shape="209.57,-104.40 209.39,-104.34 209.90,-106.28 208.40,-108.17 206.40,-108.17 206.49,-107.23 206.75,-106.41 207.19,-105.71 207.80,-105.12 208.58,-104.65"/>
    </edge>
    <edge id=":J6_w2" function="walkingarea">
        <lane id=":J6_w2_0" index="0" allow="pedestrian" speed="2.78" length="2.81" width="4.00" shape="193.60,-108.17 191.60,-108.17 190.08,-106.06 190.69,-104.15 190.44,-104.21 191.43,-104.47 192.21,-104.98 192.82,-105.60 193.25,-106.34 193.51,-107.20"/>
    </edge>
    <edge id=":J7_w0" function="walkingarea">
        <lane id=":J7_w0_0" index="0" allow="pedestrian" speed="2.78" length="14.80" width="2.00" shape="206.40,-300.00 208.40,-300.00 191.60,-300.00 193.60,-300.00"/>
    </edge>

    <edge id="-E0" from="J1" to="J0" priority="-1">
        <lane id="-E0_0" index="0" allow="pedestrian" speed="13.89" length="191.88" width="2.00" shape="91.88,7.40 -100.00,7.40"/>
        <lane id="-E0_1" index="1" disallow="pedestrian" speed="13.89" length="191.88" shape="91.88,4.80 -100.00,4.80"/>
        <lane id="-E0_2" index="2" disallow="pedestrian" speed="13.89" length="191.88" shape="91.88,1.60 -100.00,1.60"/>
    </edge>
    <edge id="-E1" from="J3" to="J2" priority="-1">
        <lane id="-E1_0" index="0" allow="pedestrian" speed="13.89" length="190.90" width="2.00" shape="192.60,300.00 192.60,109.10"/>
        <lane id="-E1_1" index="1" disallow="pedestrian" speed="13.89" length="190.90" shape="195.20,300.00 195.20,109.10"/>
        <lane id="-E1_2" index="2" disallow="pedestrian" speed="13.89" length="190.90" shape="198.40,300.00 198.40,109.10"/>
    </edge>
    <edge id="-E2" from="J5" to="J4" priority="-1">
        <lane id="-E2_0" index="0" allow="pedestrian" speed="13.89" length="189.94" width="2.00" shape="500.00,7.40 310.06,7.40"/>
        <lane id="-E2_1" index="1" disallow="pedestrian" speed="13.89" length="189.94" shape="500.00,4.80 310.06,4.80"/>
        <lane id="-E2_2" index="2" disallow="pedestrian" speed="13.89" length="189.94" shape="500.00,1.60 310.06,1.60"/>
    </edge>
    <edge id="-E3" from="J7" to="J6" priority="-1">
        <lane id="-E3_0" index="0" allow="pedestrian" speed="13.89" length="191.83" width="2.00" shape="207.40,-300.00 207.40,-108.17"/>
        <lane id="-E3_1" index="1" disallow="pedestrian" speed="13.89" length="191.83" shape="204.80,-300.00 204.80,-108.17"/>
        <lane id="-E3_2" index="2" disallow="pedestrian" speed="13.89" length="191.83" shape="201.60,-300.00 201.60,-108.17"/>
    </edge>
    <edge id="-E4" from="J2" to="J1" priority="-1" shape="200.00,100.00 198.20,99.84 196.41,99.65 194.63,99.41 192.85,99.13 191.08,98.82 189.31,98.46 187.55,98.07 185.80,97.64 184.06,97.17 182.32,96.66 180.59,96.12 178.88,95.54 177.16,94.92 175.46,94.27 173.77,93.59 172.09,92.87 170.42,92.12 168.76,91.33 167.11,90.51 165.47,89.66 163.84,88.78 162.23,87.86 160.62,86.92 159.03,85.95 157.45,84.94 155.89,83.91 154.34,82.84 152.80,81.75 151.27,80.64 149.76,79.49 148.27,78.32 146.79,77.12 145.32,75.89 143.87,74.64 142.44,73.37 141.02,72.07 139.62,70.74 138.24,69.40 136.87,68.03 135.52,66.63 134.19,65.22 132.88,63.78 131.59,62.33 130.31,60.85 129.05,59.35 127.82,57.83 126.60,56.30 125.40,54.74 124.23,53.17 123.07,51.58 121.93,49.97 120.82,48.35 119.73,46.71 118.66,45.05 117.61,43.38 116.59,41.70 115.58,40.00 114.61,38.28 113.65,36.56 112.72,34.82 111.81,33.07 110.93,31.30 110.07,29.53 109.24,27.74 108.43,25.95 107.65,24.14 106.90,22.33 106.17,20.50 105.47,18.67 104.79,16.83 104.15,14.98 103.53,13.13 102.94,11.27 102.38,9.40 101.84,7.53 101.34,5.65 100.86,3.77 100.42,1.89 100.00,0.00">
        <lane id="-E4_0" index="0" allow="pedestrian" speed="13.89" length="138.87" width="2.00" shape="190.05,106.15 189.70,106.09 187.77,105.70 185.87,105.28 183.95,104.81 182.05,104.29 180.18,103.74 178.30,103.16 176.44,102.52 174.58,101.86 172.76,101.16 170.93,100.42 169.12,99.65 167.31,98.84 165.52,97.98 163.76,97.11 162.01,96.20 160.25,95.25 158.53,94.27 156.83,93.27 155.11,92.23 153.42,91.15 151.75,90.04 150.10,88.91 148.49,87.77 146.86,86.58 145.23,85.34 143.65,84.10 142.09,82.83 140.53,81.53 139.00,80.21 137.48,78.87 135.97,77.48 134.49,76.08 133.05,74.67 131.59,73.21 130.17,71.74 128.76,70.25 127.38,68.73 126.03,67.21 124.68,65.65 123.34,64.06 122.05,62.46 120.77,60.86 119.50,59.21 118.27,57.56 117.06,55.90 115.86,54.20 114.69,52.49 113.54,50.76 112.42,49.02 111.31,47.27 110.25,45.51 109.18,43.71 108.16,41.90 107.16,40.11 106.17,38.27 105.21,36.42 104.29,34.56 103.39,32.70 102.51,30.82 101.66,28.94 100.83,27.02 100.04,25.12 99.28,23.19 98.54,21.27 97.82,19.32 97.15,17.37 96.49,15.42 95.87,13.45 95.28,11.49 94.74,9.63"/>
        <lane id="-E4_1" index="1" disallow="pedestrian" speed="13.89" length="138.87" shape="190.29,103.55 190.19,103.54 188.31,103.16 186.46,102.74 184.60,102.29 182.76,101.79 180.93,101.25 179.10,100.68 177.29,100.07 175.49,99.42 173.71,98.74 171.93,98.02 170.16,97.27 168.41,96.48 166.66,95.65 164.94,94.79 163.23,93.90 161.51,92.98 159.83,92.02 158.16,91.04 156.49,90.02 154.83,88.97 153.20,87.89 151.59,86.77 150.00,85.65 148.41,84.49 146.82,83.29 145.28,82.07 143.74,80.82 142.21,79.55 140.71,78.25 139.23,76.93 137.75,75.58 136.30,74.20 134.87,72.82 133.45,71.39 132.05,69.94 130.67,68.48 129.31,66.99 127.98,65.50 126.66,63.96 125.35,62.40 124.08,60.84 122.82,59.26 121.57,57.64 120.37,56.02 119.17,54.38 117.99,52.71 116.84,51.04 115.71,49.34 114.61,47.63 113.53,45.90 112.48,44.17 111.43,42.40 110.42,40.63 109.44,38.86 108.47,37.06 107.53,35.25 106.62,33.42 105.73,31.59 104.88,29.74 104.04,27.89 103.23,26.01 102.45,24.14 101.70,22.25 100.98,20.36 100.27,18.45 99.61,16.53 98.97,14.62 98.35,12.68 97.78,10.75 97.29,9.07"/>
        <lane id="-E4_2" index="2" disallow="pedestrian" speed="13.89" length="138.87" shape="190.57,100.35 188.98,100.03 187.19,99.63 185.40,99.19 183.63,98.71 181.86,98.19 180.09,97.64 178.35,97.05 176.60,96.42 174.88,95.76 173.16,95.07 171.45,94.34 169.75,93.57 168.06,92.77 166.39,91.94 164.72,91.07 163.06,90.18 161.43,89.25 159.80,88.29 158.18,87.31 156.58,86.28 154.99,85.24 153.42,84.15 151.87,83.05 150.32,81.92 148.78,80.76 147.27,79.57 145.77,78.35 144.28,77.11 142.82,75.84 141.37,74.56 139.93,73.24 138.51,71.89 137.12,70.54 135.73,69.15 134.36,67.73 133.02,66.31 131.69,64.85 130.39,63.39 129.09,61.89 127.82,60.37 126.57,58.83 125.34,57.29 124.12,55.71 122.94,54.12 121.77,52.51 120.62,50.88 119.49,49.25 118.39,47.59 117.31,45.91 116.25,44.22 115.22,42.52 114.20,40.80 113.21,39.06 112.25,37.33 111.30,35.57 110.38,33.80 109.49,32.01 108.62,30.22 107.79,28.41 106.97,26.60 106.18,24.76 105.42,22.93 104.68,21.08 103.97,19.23 103.28,17.37 102.64,15.50 102.01,13.63 101.41,11.74 100.85,9.85 100.42,8.37"/>
    </edge>
    <edge id="-E5" from="J4" to="J2" priority="-1" shape="300.00,0.00 300.03,1.57 300.01,3.15 299.94,4.74 299.82,6.34 299.66,7.94 299.45,9.55 299.20,11.16 298.90,12.78 298.56,14.40 298.17,16.03 297.74,17.65 297.27,19.28 296.75,20.91 296.20,22.54 295.60,24.17 294.97,25.81 294.29,27.43 293.58,29.06 292.83,30.69 292.04,32.31 291.22,33.93 290.36,35.54 289.47,37.15 288.54,38.75 287.58,40.35 286.58,41.94 285.55,43.52 284.49,45.09 283.40,46.66 282.28,48.21 281.13,49.76 279.95,51.29 278.74,52.81 277.51,54.33 276.24,55.82 274.95,57.31 273.63,58.78 272.29,60.24 270.93,61.68 269.54,63.10 268.12,64.51 266.69,65.90 265.23,67.27 263.75,68.63 262.25,69.97 260.73,71.28 259.19,72.58 257.63,73.85 256.06,75.11 254.46,76.34 252.85,77.55 251.22,78.73 249.58,79.89 247.93,81.03 246.26,82.14 244.57,83.22 242.87,84.28 241.16,85.31 239.44,86.31 237.71,87.29 235.97,88.23 234.22,89.15 232.46,90.03 230.69,90.88 228.91,91.70 227.13,92.49 225.34,93.25 223.55,93.97 221.75,94.66 219.94,95.31 218.13,95.93 216.32,96.51 214.51,97.05 212.70,97.56 210.88,98.03 209.06,98.46 207.25,98.85 205.43,99.20 203.62,99.51 201.81,99.77 200.00,100.00">
        <lane id="-E5_0" index="0" allow="pedestrian" speed="13.89" length="139.14" width="2.00" shape="306.80,10.40 306.78,10.60 306.49,12.40 306.16,14.21 305.78,16.02 305.35,17.84 304.87,19.62 304.35,21.43 303.78,23.22 303.18,25.00 302.53,26.78 301.84,28.57 301.09,30.34 300.33,32.08 299.52,33.86 298.67,35.60 297.79,37.34 296.86,39.07 295.91,40.80 294.91,42.51 293.88,44.22 292.81,45.93 291.72,47.61 290.60,49.27 289.44,50.94 288.25,52.58 287.03,54.22 285.77,55.85 284.51,57.44 283.20,59.06 281.85,60.64 280.50,62.20 279.11,63.75 277.71,65.28 276.26,66.81 274.79,68.31 273.31,69.79 271.80,71.25 270.27,72.69 268.72,74.11 267.13,75.53 265.53,76.91 263.91,78.28 262.28,79.61 260.63,80.93 258.94,82.23 257.24,83.51 255.53,84.75 253.82,85.95 252.08,87.16 250.30,88.34 248.52,89.48 246.74,90.59 244.93,91.68 243.12,92.73 241.29,93.76 239.45,94.76 237.60,95.73 235.72,96.67 233.84,97.58 231.96,98.44 230.08,99.28 228.17,100.09 226.26,100.86 224.33,101.60 222.39,102.29 220.46,102.95 218.51,103.58 216.57,104.16 214.63,104.70 212.66,105.21 210.69,105.68 209.90,105.85"/>
        <lane id="-E5_1" index="1" disallow="pedestrian" speed="13.89" length="139.14" shape="304.17,10.45 303.93,11.97 303.61,13.71 303.24,15.45 302.82,17.20 302.37,18.93 301.86,20.67 301.31,22.41 300.73,24.14 300.09,25.86 299.42,27.60 298.70,29.32 297.96,31.02 297.17,32.75 296.34,34.45 295.48,36.14 294.58,37.83 293.65,39.52 292.67,41.19 291.67,42.86 290.62,44.53 289.55,46.17 288.45,47.80 287.32,49.43 286.15,51.05 284.96,52.66 283.73,54.25 282.48,55.81 281.20,57.40 279.88,58.95 278.55,60.48 277.18,62.01 275.80,63.51 274.39,65.01 272.95,66.48 271.48,67.93 270.01,69.37 268.50,70.79 266.97,72.19 265.42,73.58 263.84,74.93 262.25,76.28 260.65,77.58 259.03,78.88 257.36,80.16 255.70,81.41 254.01,82.63 252.33,83.82 250.62,85.00 248.88,86.16 247.13,87.28 245.38,88.37 243.60,89.44 241.83,90.47 240.03,91.49 238.23,92.47 236.41,93.42 234.57,94.34 232.73,95.22 230.89,96.07 229.04,96.89 227.17,97.69 225.30,98.44 223.42,99.16 221.53,99.84 219.64,100.49 217.74,101.10 215.85,101.66 213.95,102.19 212.03,102.69 210.12,103.14 209.57,103.26"/>
        <lane id="-E5_2" index="2" disallow="pedestrian" speed="13.89" length="139.14" shape="300.92,10.50 300.78,11.43 300.47,13.09 300.12,14.75 299.72,16.42 299.28,18.08 298.80,19.74 298.27,21.41 297.71,23.07 297.10,24.73 296.45,26.41 295.76,28.06 295.04,29.71 294.28,31.38 293.47,33.02 292.64,34.67 291.77,36.30 290.86,37.94 289.92,39.56 288.94,41.19 287.93,42.80 286.88,44.40 285.81,45.99 284.71,47.58 283.57,49.16 282.41,50.73 281.21,52.28 279.99,53.81 278.74,55.35 277.45,56.86 276.15,58.37 274.81,59.86 273.46,61.33 272.08,62.79 270.68,64.23 269.24,65.65 267.80,67.06 266.32,68.44 264.82,69.82 263.31,71.17 261.77,72.50 260.21,73.81 258.64,75.09 257.05,76.37 255.43,77.61 253.80,78.84 252.15,80.03 250.50,81.20 248.83,82.35 247.13,83.48 245.42,84.57 243.71,85.64 241.97,86.69 240.24,87.70 238.48,88.69 236.72,89.64 234.95,90.57 233.16,91.47 231.37,92.33 229.57,93.16 227.77,93.96 225.95,94.73 224.13,95.46 222.31,96.16 220.47,96.82 218.63,97.45 216.79,98.04 214.96,98.59 213.12,99.10 211.26,99.58 209.41,100.02 209.16,100.07"/>
    </edge>
    <edge id="-E6" from="J6" to="J4" priority="-1" shape="200.00,-100.00 201.54,-99.68 203.09,-99.33 204.66,-98.96 206.23,-98.56 207.82,-98.14 209.41,-97.70 211.01,-97.23 212.62,-96.73 214.23,-96.22 215.85,-95.68 217.48,-95.11 219.11,-94.53 220.74,-93.92 222.38,-93.28 224.02,-92.62 225.66,-91.94 227.30,-91.24 228.94,-90.51 230.58,-89.75 232.22,-88.98 233.86,-88.18 235.49,-87.36 237.12,-86.52 238.74,-85.65 240.36,-84.76 241.98,-83.84 243.59,-82.91 245.19,-81.95 246.78,-80.97 248.36,-79.96 249.93,-78.93 251.50,-77.89 253.05,-76.81 254.59,-75.72 256.12,-74.60 257.63,-73.46 259.13,-72.30 260.61,-71.12 262.08,-69.91 263.54,-68.68 264.97,-67.43 266.39,-66.16 267.79,-64.87 269.17,-63.55 270.53,-62.21 271.87,-60.85 273.19,-59.47 274.49,-58.07 275.76,-56.64 277.01,-55.20 278.24,-53.73 279.44,-52.24 280.61,-50.73 281.76,-49.20 282.88,-47.65 283.97,-46.07 285.04,-44.48 286.07,-42.86 287.08,-41.22 288.05,-39.57 288.99,-37.89 289.90,-36.19 290.77,-34.47 291.61,-32.72 292.42,-30.96 293.19,-29.18 293.93,-27.38 294.62,-25.55 295.28,-23.71 295.91,-21.84 296.49,-19.96 297.03,-18.05 297.53,-16.13 297.99,-14.18 298.41,-12.21 298.79,-10.23 299.12,-8.22 299.41,-6.20 299.65,-4.15 299.85,-2.09 300.00,0.00">