<routes xmlns:xsi="http://www.w3.org/2001/XMLSchema-instance" xsi:noNamespaceSchemaLocation="http://sumo.dlr.de/xsd/routes_file.xsd">
    
    <vType id="DEFAULT_VEHTYPE" laneChangeModel="SL2015" carFollowModel="EIDM" sigmaerror="0.9" />
    <vType id="DEFAULT_KRAUSS" accel="2.0" decel="4.5" sigma="0.9" laneChangeModel="SL2015" maxSpeed="30.0" carFollowModel="Krauss" />
    
    
    <flow id="f_0" type="DEFAULT_VEHTYPE" begin="0.00" from="E0" to="E2" end="600.00" number="500" departPos="random" departLane="free" departPosLat="random_free" arrivalPos="random" arrivalLane="random" />
    
    <flow id="f_1" type="DEFAULT_VEHTYPE" begin="0.00" from="E5" to="E2" end="600.00" number="500" departPos="random" departLane="free" departPosLat="random_free" arrivalPos="random" arrivalLane="random" />
    
    <flow id="f_2" type="DEFAULT_VEHTYPE" begin="0.00" from="E0" to="E6" end="600.00" number="500" departPos="random" departLane="free" departPosLat="random_free" arrivalPos="random" arrivalLane="random" />
    
    <flow id="f_3" type="DEFAULT_VEHTYPE" begin="0.00" from="-E2" to="-E0" end="600.00" number="500" departPos="random" departLane="free" departPosLat="random_free" arrivalPos="random" arrivalLane="random" />
    
    <flow id="f_4" type="DEFAULT_VEHTYPE" begin="0.00" from="E7" to="-E0" end="600.00" number="500" departPos="random" departLane="free" departPosLat="random_free" arrivalPos="random" arrivalLane="random" />
    
    <flow id="f_5" type="DEFAULT_VEHTYPE" begin="0.00" from="-E2" to="E8" end="600.00" number="500" departPos="random" departLane="free" departPosLat="random_free" arrivalPos="random" arrivalLane="random" />
</routes>