<?xml version="1.0" encoding="UTF-8"?>

<!-- generated on 2023-10-25 21:48:57 by Eclipse SUMO GUI Version 1.18.0
<configuration xmlns:xsi="http://www.w3.org/2001/XMLSchema-instance" xsi:noNamespaceSchemaLocation="http://sumo.dlr.de/xsd/sumoConfiguration.xsd">

    <input>
        <net-file value="Highway_route.net.xml"/>
        <route-files value="Highway.rou.xml"/>
    </input>

    <output>
        <fcd-output value="fcd-output.xml"/>
        <fcd-output.acceleration value="true"/>
        <amitran-output value="trajectory"/>
        <collision-output value="collision-output"/>
        <statistic-output value="statistic-output"/>
    </output>

    <time>
        <begin value="0"/>
        <end value="500"/>
        <step-length value="1"/>
    </time>

    <processing>
        <collision.action value="remove"/>
        <max-num-vehicles value="50"/>
    </processing>

    <random_number>
        <random value="true"/>
    </random_number>

</configuration>
-->

<statistics xmlns:xsi="http://www.w3.org/2001/XMLSchema-instance" xsi:noNamespaceSchemaLocation="http://sumo.dlr.de/xsd/statistic_file.xsd">
    <performance clockBegin="164802.70" clockEnd="164840.52" clockDuration="37.82" traciDuration="0.00" realTimeFactor="13.22" vehicleUpdatesPerSecond="649.03" personUpdatesPerSecond="0.00" begin="0.00" end="500.00" duration="500.00"/>
    <vehicles loaded="2332" inserted="859" running="50" waiting="1473"/>
    <teleports total="0" jam="0" yield="0" wrongLane="0"/>
    <safety collisions="27" emergencyStops="2" emergencyBraking="4"/>
    <persons loaded="0" running="0" jammed="0"/>
    <personTeleports total="0" abortWait="0" wrongDest="0"/>
</statistics>
