<?xml version="1.0" encoding="UTF-8"?>

<!-- generated on 2023-10-25 21:48:57 by Eclipse SUMO GUI Version 1.18.0
<configuration xmlns:xsi="http://www.w3.org/2001/XMLSchema-instance" xsi:noNamespaceSchemaLocation="http://sumo.dlr.de/xsd/sumoConfiguration.xsd">

    <input>
        <net-file value="Highway_route.net.xml"/>
        <route-files value="Highway.rou.xml"/>
    </input>

    <output>
        <fcd-output value="fcd-output.xml"/>
        <fcd-output.acceleration value="true"/>
        <amitran-output value="trajectory"/>
        <collision-output value="collision-output"/>
        <statistic-output value="statistic-output"/>
    </output>

    <time>
        <begin value="0"/>
        <end value="500"/>
        <step-length value="1"/>
    </time>

    <processing>
        <collision.action value="remove"/>
        <max-num-vehicles value="50"/>
    </processing>

    <random_number>
        <random value="true"/>
    </random_number>

</configuration>
-->

<trajectories xmlns:xsi="http://www.w3.org/2001/XMLSchema-instance" xsi:noNamespaceSchemaLocation="http://sumo.dlr.de/xsd/amitran/trajectories.xsd" timeStepSize="1000">
    <actorConfig id="18" vehicleClass="Passenger" fuel="Gasoline" emissionClass="Euro4" ref="ElderlyDriver"/>
    <vehicle id="0" actorConfig="18" startTime="0" ref="f_0.0"/>
    <motionState vehicle="0" speed="0" time="0" acceleration="0"/>
    <actorConfig id="7" vehicleClass="Passenger" fuel="Gasoline" emissionClass="Euro4" ref="AggressiveDriver"/>
    <vehicle id="1" actorConfig="7" startTime="0" ref="f_1.0"/>
    <motionState vehicle="1" speed="0" time="0" acceleration="0"/>
    <actorConfig id="11" vehicleClass="Passenger" fuel="Gasoline" emissionClass="Euro4" ref="DefensiveDriver"/>
    <vehicle id="2" actorConfig="11" startTime="0" ref="f_2.0"/>
    <motionState vehicle="2" speed="0" time="0" acceleration="0"/>
    <actorConfig id="17" vehicleClass="Passenger" fuel="Gasoline" emissionClass="Euro4" ref="DeliveryTruck"/>
    <vehicle id="3" actorConfig="17" startTime="0" ref="f_3.0"/>
    <motionState vehicle="3" speed="0" time="0" acceleration="0"/>
    <actorConfig id="10" vehicleClass="Passenger" fuel="Gasoline" emissionClass="Euro4" ref="RecklessDriver"/>
    <vehicle id="4" actorConfig="10" startTime="0" ref="f_4.0"/>
    <motionState vehicle="4" speed="0" time="0" acceleration="0"/>
    <actorConfig id="16" vehicleClass="Passenger" fuel="Gasoline" emissionClass="Euro4" ref="InexperiencedDriver"/>
    <vehicle id="5" actorConfig="16" startTime="0" ref="f_5.0"/>
    <motionState vehicle="5" speed="0" time="0" acceleration="0"/>
    <motionState vehicle="0" speed="55" time="1000" acceleration="549"/>
    <actorConfig id="13" vehicleClass="Passenger" fuel="Gasoline" emissionClass="Euro4" ref="AggressiveLanechangingdriver"/>
    <vehicle id="6" actorConfig="13" startTime="1000" ref="f_0.1"/>
    <motionState vehicle="6" speed="0" time="1000" acceleration="0"/>
    <motionState vehicle="1" speed="229" time="1000" acceleration="2288"/>
    <vehicle id="7" actorConfig="7" startTime="1000" ref="f_1.1"/>
    <motionState vehicle="7" speed="0" time="1000" acceleration="0"/>
    <motionState vehicle="2" speed="69" time="1000" acceleration="687"/>
    <motionState vehicle="3" speed="114" time="1000" acceleration="1145"/>
    <motionState vehicle="4" speed="95" time="1000" acceleration="954"/>
    <motionState vehicle="5" speed="46" time="1000" acceleration="458"/>
    <motionState vehicle="0" speed="171" time="2000" acceleration="1161"/>
    <motionState vehicle="6" speed="92" time="2000" acceleration="916"/>
    <motionState vehicle="1" speed="723" time="2000" acceleration="4945"/>
    <motionState vehicle="7" speed="227" time="2000" acceleration="2271"/>
    <vehicle id="8" actorConfig="13" startTime="2000" ref="f_1.2"/>
    <motionState vehicle="8" speed="0" time="2000" acceleration="0"/>
    <motionState vehicle="2" speed="218" time="2000" acceleration="1492"/>
    <motionState vehicle="3" speed="363" time="2000" acceleration="2487"/>
    <vehicle id="9" actorConfig="10" startTime="2000" ref="f_3.1"/>
    <motionState vehicle="9" speed="0" time="2000" acceleration="0"/>
    <motionState vehicle="4" speed="443" time="2000" acceleration="3476"/>
    <vehicle id="10" actorConfig="10" startTime="2000" ref="f_4.1"/>
    <motionState vehicle="10" speed="0" time="2000" acceleration="0"/>
    <motionState vehicle="5" speed="145" time="2000" acceleration="995"/>
    <actorConfig id="12" vehicleClass="Passenger" fuel="Gasoline" emissionClass="Euro4" ref="HumanLikeDriver"/>
    <vehicle id="11" actorConfig="12" startTime="2000" ref="f_5.1"/>
    <motionState vehicle="11" speed="0" time="2000" acceleration="0"/>
    <motionState vehicle="0" speed="286" time="3000" acceleration="1151"/>
    <motionState vehicle="6" speed="291" time="3000" acceleration="1989"/>
    <vehicle id="12" actorConfig="11" startTime="3000" ref="f_0.2"/>
    <motionState vehicle="12" speed="0" time="3000" acceleration="0"/>
    <actorConfig id="15" vehicleClass="Passenger" fuel="Gasoline" emissionClass="Euro4" ref="Aggressivejunctiondriver"/>
    <vehicle id="13" actorConfig="15" startTime="3000" ref="f_0.3"/>
    <motionState vehicle="13" speed="0" time="3000" acceleration="0"/>
    <motionState vehicle="1" speed="1174" time="3000" acceleration="4511"/>
    <motionState vehicle="7" speed="677" time="3000" acceleration="4495"/>
    <motionState vehicle="8" speed="89" time="3000" acceleration="894"/>
    <actorConfig id="21" vehicleClass="Passenger" fuel="Gasoline" emissionClass="Euro4" ref="Motorcycle"/>
    <vehicle id="14" actorConfig="21" startTime="3000" ref="f_1.3"/>
    <motionState vehicle="14" speed="0" time="3000" acceleration="0"/>
    <motionState vehicle="2" speed="368" time="3000" acceleration="1499"/>
    <motionState vehicle="3" speed="599" time="3000" acceleration="2357"/>
    <motionState vehicle="9" speed="183" time="3000" acceleration="1831"/>
    <actorConfig id="8" vehicleClass="Passenger" fuel="Gasoline" emissionClass="Euro4" ref="CautiousDriver"/>
    <vehicle id="15" actorConfig="8" startTime="3000" ref="f_3.2"/>
    <motionState vehicle="15" speed="0" time="3000" acceleration="0"/>
    <motionState vehicle="4" speed="788" time="3000" acceleration="3452"/>
    <motionState vehicle="10" speed="95" time="3000" acceleration="954"/>
    <vehicle id="16" actorConfig="12" startTime="3000" ref="f_4.2"/>
    <motionState vehicle="16" speed="0" time="3000" acceleration="0"/>
    <motionState vehicle="5" speed="245" time="3000" acceleration="996"/>
    <motionState vehicle="11" speed="92" time="3000" acceleration="916"/>
    <vehicle id="17" actorConfig="16" startTime="3000" ref="f_5.2"/>
    <motionState vehicle="17" speed="0" time="3000" acceleration="0"/>
    <motionState vehicle="0" speed="402" time="4000" acceleration="1157"/>
    <motionState vehicle="6" speed="436" time="4000" acceleration="1454"/>
    <motionState vehicle="12" speed="69" time="4000" acceleration="685"/>
    <motionState vehicle="13" speed="92" time="4000" acceleration="916"/>
    <vehicle id="18" actorConfig="7" startTime="4000" ref="f_0.4"/>
    <motionState vehicle="18" speed="0" time="4000" acceleration="0"/>
    <motionState vehicle="1" speed="1025" time="4000" acceleration="-1488"/>
    <motionState vehicle="7" speed="732" time="4000" acceleration="559"/>
    <motionState vehicle="8" speed="287" time="4000" acceleration="1972"/>
    <motionState vehicle="14" speed="318" time="4000" acceleration="3184"/>
    <motionState vehicle="2" speed="527" time="4000" acceleration="1592"/>
    <motionState vehicle="3" speed="747" time="4000" acceleration="1482"/>
    <motionState vehicle="9" speed="580" time="4000" acceleration="3973"/>
    <motionState vehicle="15" speed="46" time="4000" acceleration="456"/>
    <motionState vehicle="4" speed="1036" time="4000" acceleration="2478"/>
    <motionState vehicle="10" speed="443" time="4000" acceleration="3475"/>
    <motionState vehicle="16" speed="48" time="4000" acceleration="477"/>
    <actorConfig id="19" vehicleClass="Passenger" fuel="Gasoline" emissionClass="Euro4" ref="SportsCarDriver"/>
    <vehicle id="19" actorConfig="19" startTime="4000" ref="f_4.3"/>
    <motionState vehicle="19" speed="0" time="4000" acceleration="0"/>
    <motionState vehicle="5" speed="337" time="4000" acceleration="925"/>
    <motionState vehicle="11" speed="291" time="4000" acceleration="1990"/>
    <motionState vehicle="17" speed="0" time="4000" acceleration="0"/>
    <motionState vehicle="0" speed="513" time="5000" acceleration="1114"/>
    <motionState vehicle="6" speed="651" time="5000" acceleration="2156"/>
    <motionState vehicle="12" speed="216" time="5000" acceleration="1478"/>
    <motionState vehicle="13" speed="266" time="5000" acceleration="1747"/>
    <motionState vehicle="18" speed="229" time="5000" acceleration="2288"/>
    <motionState vehicle="1" speed="958" time="5000" acceleration="-672"/>
    <motionState vehicle="7" speed="631" time="5000" acceleration="-1018"/>
    <motionState vehicle="8" speed="485" time="5000" acceleration="1984"/>
    <motionState vehicle="14" speed="934" time="5000" acceleration="6152"/>
    <motionState vehicle="2" speed="690" time="5000" acceleration="1632"/>
    <motionState vehicle="3" speed="802" time="5000" acceleration="552"/>
    <motionState vehicle="9" speed="959" time="5000" acceleration="3788"/>
    <motionState vehicle="15" speed="145" time="5000" acceleration="992"/>
    <motionState vehicle="4" speed="1142" time="5000" acceleration="1057"/>
    <motionState vehicle="10" speed="829" time="5000" acceleration="3857"/>
    <motionState vehicle="16" speed="151" time="5000" acceleration="1036"/>
    <motionState vehicle="19" speed="240" time="5000" acceleration="2401"/>
    <motionState vehicle="5" speed="423" time="5000" acceleration="859"/>
    <motionState vehicle="11" speed="490" time="5000" acceleration="1998"/>
    <motionState vehicle="17" speed="43" time="5000" acceleration="429"/>
    <motionState vehicle="0" speed="620" time="6000" acceleration="1072"/>
    <motionState vehicle="6" speed="884" time="6000" acceleration="2321"/>
    <motionState vehicle="12" speed="365" time="6000" acceleration="1489"/>
    <motionState vehicle="13" speed="435" time="6000" acceleration="1691"/>
    <motionState vehicle="18" speed="725" time="6000" acceleration="4960"/>
    <motionState vehicle="1" speed="1191" time="6000" acceleration="2327"/>
    <motionState vehicle="7" speed="709" time="6000" acceleration="783"/>
    <motionState vehicle="8" speed="673" time="6000" acceleration="1880"/>
    <motionState vehicle="14" speed="1290" time="6000" acceleration="3562"/>
    <motionState vehicle="2" speed="850" time="6000" acceleration="1599"/>
    <motionState vehicle="3" speed="843" time="6000" acceleration="406"/>
    <motionState vehicle="9" speed="1347" time="6000" acceleration="3874"/>
    <motionState vehicle="15" speed="245" time="6000" acceleration="998"/>
    <vehicle id="20" actorConfig="10" startTime="6000" ref="f_3.3"/>
    <motionState vehicle="20" speed="0" time="6000" acceleration="0"/>
    <motionState vehicle="4" speed="1288" time="6000" acceleration="1464"/>
    <motionState vehicle="10" speed="1079" time="6000" acceleration="2509"/>
    <motionState vehicle="16" speed="255" time="6000" acceleration="1041"/>
    <motionState vehicle="19" speed="777" time="6000" acceleration="5373"/>
    <vehicle id="21" actorConfig="13" startTime="6000" ref="f_4.4"/>
    <motionState vehicle="21" speed="0" time="6000" acceleration="0"/>
    <vehicle id="22" actorConfig="15" startTime="6000" ref="f_4.5"/>
    <motionState vehicle="22" speed="0" time="6000" acceleration="0"/>
    <motionState vehicle="5" speed="519" time="6000" acceleration="952"/>
    <motionState vehicle="11" speed="681" time="6000" acceleration="1906"/>
    <motionState vehicle="17" speed="33" time="6000" acceleration="-99"/>
    <motionState vehicle="0" speed="745" time="7000" acceleration="1247"/>
    <motionState vehicle="6" speed="1108" time="7000" acceleration="2243"/>
    <motionState vehicle="12" speed="531" time="7000" acceleration="1661"/>
    <motionState vehicle="13" speed="621" time="7000" acceleration="1858"/>
    <motionState vehicle="18" speed="1210" time="7000" acceleration="4852"/>
    <actorConfig id="20" vehicleClass="Passenger" fuel="Gasoline" emissionClass="Euro4" ref="SchoolBus"/>
    <vehicle id="23" actorConfig="20" startTime="7000" ref="f_0.5"/>
    <motionState vehicle="23" speed="0" time="7000" acceleration="0"/>
    <motionState vehicle="1" speed="1518" time="7000" acceleration="3273"/>
    <motionState vehicle="7" speed="888" time="7000" acceleration="1786"/>
    <motionState vehicle="8" speed="863" time="7000" acceleration="1897"/>
    <motionState vehicle="14" speed="1370" time="7000" acceleration="805"/>
    <actorConfig id="9" vehicleClass="Passenger" fuel="Gasoline" emissionClass="Euro4" ref="EcoFriendlyDriver"/>
    <vehicle id="24" actorConfig="9" startTime="7000" ref="f_1.4"/>
    <motionState vehicle="24" speed="0" time="7000" acceleration="0"/>
    <motionState vehicle="2" speed="988" time="7000" acceleration="1375"/>
    <motionState vehicle="3" speed="923" time="7000" acceleration="803"/>
    <motionState vehicle="9" speed="1664" time="7000" acceleration="3170"/>
    <motionState vehicle="15" speed="344" time="7000" acceleration="998"/>
    <motionState vehicle="20" speed="176" time="7000" acceleration="1765"/>
    <motionState vehicle="4" speed="1360" time="7000" acceleration="717"/>
    <motionState vehicle="10" speed="1261" time="7000" acceleration="1818"/>
    <motionState vehicle="16" speed="452" time="7000" acceleration="1969"/>
    <motionState vehicle="19" speed="1251" time="7000" acceleration="4735"/>
    <motionState vehicle="21" speed="0" time="7000" acceleration="0"/>
    <motionState vehicle="22" speed="48" time="7000" acceleration="477"/>
    <motionState vehicle="5" speed="620" time="7000" acceleration="1017"/>
    <motionState vehicle="11" speed="867" time="7000" acceleration="1864"/>
    <motionState vehicle="17" speed="122" time="7000" acceleration="886"/>
    <vehicle id="25" actorConfig="16" startTime="7000" ref="f_5.3"/>
    <motionState vehicle="25" speed="0" time="7000" acceleration="0"/>
    <motionState vehicle="0" speed="861" time="8000" acceleration="1157"/>
    <motionState vehicle="6" speed="1315" time="8000" acceleration="2073"/>
    <motionState vehicle="12" speed="610" time="8000" acceleration="788"/>
    <motionState vehicle="13" speed="788" time="8000" acceleration="1665"/>
    <motionState vehicle="18" speed="1596" time="8000" acceleration="3857"/>
    <motionState vehicle="23" speed="66" time="8000" acceleration="657"/>
    <motionState vehicle="1" speed="1720" time="8000" acceleration="2014"/>
    <motionState vehicle="7" speed="1043" time="8000" acceleration="1558"/>
    <motionState vehicle="8" speed="1011" time="8000" acceleration="1481"/>
    <motionState vehicle="14" speed="1341" time="8000" acceleration="-292"/>
    <motionState vehicle="24" speed="87" time="8000" acceleration="866"/>
    <motionState vehicle="2" speed="1122" time="8000" acceleration="1349"/>
    <motionState vehicle="3" speed="1019" time="8000" acceleration="954"/>
    <motionState vehicle="9" speed="1951" time="8000" acceleration="2871"/>
    <motionState vehicle="15" speed="441" time="8000" acceleration="961"/>
    <motionState vehicle="20" speed="560" time="8000" acceleration="3837"/>
    <motionState vehicle="4" speed="1453" time="8000" acceleration="933"/>
    <motionState vehicle="10" speed="1487" time="8000" acceleration="2260"/>
    <motionState vehicle="16" speed="651" time="8000" acceleration="1989"/>
    <motionState vehicle="19" speed="1449" time="8000" acceleration="1983"/>
    <motionState vehicle="21" speed="48" time="8000" acceleration="477"/>
    <motionState vehicle="22" speed="151" time="8000" acceleration="1036"/>
    <vehicle id="26" actorConfig="9" startTime="8000" ref="f_4.6"/>
    <motionState vehicle="26" speed="0" time="8000" acceleration="0"/>
    <motionState vehicle="5" speed="721" time="8000" acceleration="1004"/>
    <motionState vehicle="11" speed="1068" time="8000" acceleration="2006"/>
    <motionState vehicle="17" speed="217" time="8000" acceleration="959"/>
    <motionState vehicle="25" speed="44" time="8000" acceleration="437"/>
    <motionState vehicle="0" speed="987" time="9000" acceleration="1265"/>
    <motionState vehicle="6" speed="1469" time="9000" acceleration="1541"/>
    <motionState vehicle="12" speed="606" time="9000" acceleration="-44"/>
    <motionState vehicle="13" speed="946" time="9000" acceleration="1584"/>
    <motionState vehicle="18" speed="1449" time="9000" acceleration="-1467"/>
    <motionState vehicle="23" speed="213" time="9000" acceleration="1476"/>
    <motionState vehicle="1" speed="1621" time="9000" acceleration="-985"/>
    <motionState vehicle="7" speed="1149" time="9000" acceleration="1058"/>
    <motionState vehicle="8" speed="1164" time="9000" acceleration="1530"/>
    <motionState vehicle="14" speed="1612" time="9000" acceleration="2707"/>
    <motionState vehicle="24" speed="282" time="9000" acceleration="1959"/>
    <vehicle id="27" actorConfig="8" startTime="9000" ref="f_1.5"/>
    <motionState vehicle="27" speed="0" time="9000" acceleration="0"/>
    <vehicle id="28" actorConfig="13" startTime="9000" ref="f_1.6"/>
    <motionState vehicle="28" speed="0" time="9000" acceleration="0"/>
    <vehicle id="29" actorConfig="9" startTime="9000" ref="f_1.7"/>
    <motionState vehicle="29" speed="0" time="9000" acceleration="0"/>
    <vehicle id="30" actorConfig="21" startTime="9000" ref="f_1.8"/>
    <motionState vehicle="30" speed="0" time="9000" acceleration="0"/>
    <motionState vehicle="2" speed="1122" time="9000" acceleration="0"/>
    <motionState vehicle="3" speed="1256" time="9000" acceleration="2376"/>
    <motionState vehicle="9" speed="2185" time="9000" acceleration="2343"/>
    <motionState vehicle="15" speed="454" time="9000" acceleration="129"/>
    <motionState vehicle="20" speed="879" time="9000" acceleration="3190"/>
    <motionState vehicle="4" speed="1566" time="9000" acceleration="1132"/>
    <motionState vehicle="10" speed="1715" time="9000" acceleration="2279"/>
    <motionState vehicle="16" speed="810" time="9000" acceleration="1586"/>
    <motionState vehicle="19" speed="1282" time="9000" acceleration="-1668"/>
    <motionState vehicle="21" speed="151" time="9000" acceleration="1036"/>
    <motionState vehicle="22" speed="255" time="9000" acceleration="1041"/>
    <motionState vehicle="26" speed="0" time="9000" acceleration="0"/>
    <motionState vehicle="5" speed="817" time="9000" acceleration="964"/>
    <motionState vehicle="11" speed="1246" time="9000" acceleration="1779"/>
    <motionState vehicle="17" speed="315" time="9000" acceleration="979"/>
    <motionState vehicle="25" speed="141" time="9000" acceleration="973"/>
    <motionState vehicle="0" speed="1116" time="10000" acceleration="1287"/>
    <motionState vehicle="6" speed="1589" time="10000" acceleration="1199"/>
    <motionState vehicle="12" speed="594" time="10000" acceleration="-118"/>
    <motionState vehicle="13" speed="1135" time="10000" acceleration="1887"/>
    <motionState vehicle="18" speed="1002" time="10000" acceleration="-4467"/>
    <motionState vehicle="23" speed="362" time="10000" acceleration="1485"/>
    <vehicle id="31" actorConfig="17" startTime="10000" ref="f_0.6"/>
    <motionState vehicle="31" speed="0" time="10000" acceleration="0"/>
    <motionState vehicle="1" speed="1822" time="10000" acceleration="2014"/>
    <motionState vehicle="7" speed="1311" time="10000" acceleration="1620"/>
    <motionState vehicle="8" speed="998" time="10000" acceleration="-1655"/>
    <motionState vehicle="14" speed="1948" time="10000" acceleration="3362"/>
    <motionState vehicle="24" speed="270" time="10000" acceleration="-119"/>
    <motionState vehicle="27" speed="36" time="10000" acceleration="361"/>
    <motionState vehicle="28" speed="89" time="10000" acceleration="895"/>
    <motionState vehicle="29" speed="83" time="10000" acceleration="827"/>
    <motionState vehicle="30" speed="318" time="10000" acceleration="3178"/>
    <vehicle id="32" actorConfig="7" startTime="10000" ref="f_1.9"/>
    <motionState vehicle="32" speed="0" time="10000" acceleration="0"/>
    <motionState vehicle="2" speed="1250" time="10000" acceleration="1272"/>
    <vehicle id="33" actorConfig="19" startTime="10000" ref="f_2.1"/>
    <motionState vehicle="33" speed="0" time="10000" acceleration="0"/>
    <motionState vehicle="3" speed="1479" time="10000" acceleration="2225"/>
    <motionState vehicle="9" speed="2409" time="10000" acceleration="2242"/>
    <motionState vehicle="15" speed="547" time="10000" acceleration="931"/>
    <motionState vehicle="20" speed="929" time="10000" acceleration="494"/>
    <motionState vehicle="4" speed="1803" time="10000" acceleration="2363"/>
    <motionState vehicle="10" speed="1994" time="10000" acceleration="2791"/>
    <motionState vehicle="16" speed="906" time="10000" acceleration="962"/>
    <motionState vehicle="19" speed="1113" time="10000" acceleration="-1689"/>
    <motionState vehicle="21" speed="255" time="10000" acceleration="1041"/>
    <motionState vehicle="22" speed="455" time="10000" acceleration="1995"/>
    <motionState vehicle="26" speed="48" time="10000" acceleration="477"/>
    <motionState vehicle="5" speed="905" time="10000" acceleration="878"/>
    <motionState vehicle="11" speed="1422" time="10000" acceleration="1766"/>
    <motionState vehicle="17" speed="420" time="10000" acceleration="1050"/>
    <motionState vehicle="25" speed="240" time="10000" acceleration="989"/>
    <motionState vehicle="0" speed="1238" time="11000" acceleration="1218"/>
    <motionState vehicle="6" speed="1502" time="11000" acceleration="-870"/>
    <motionState vehicle="12" speed="612" time="11000" acceleration="186"/>
    <motionState vehicle="13" speed="1150" time="11000" acceleration="148"/>
    <motionState vehicle="18" speed="502" time="11000" acceleration="-4999"/>
    <motionState vehicle="23" speed="512" time="11000" acceleration="1504"/>
    <motionState vehicle="31" speed="114" time="11000" acceleration="1138"/>
    <motionState vehicle="1" speed="2085" time="11000" acceleration="2629"/>
    <motionState vehicle="7" speed="842" time="11000" acceleration="-4689"/>
    <motionState vehicle="8" speed="948" time="11000" acceleration="-506"/>
    <motionState vehicle="14" speed="2234" time="11000" acceleration="2859"/>
    <motionState vehicle="24" speed="234" time="11000" acceleration="-363"/>
    <motionState vehicle="27" speed="125" time="11000" acceleration="891"/>
    <motionState vehicle="28" speed="287" time="11000" acceleration="1974"/>
    <motionState vehicle="29" speed="249" time="11000" acceleration="1665"/>
    <motionState vehicle="30" speed="274" time="11000" acceleration="-439"/>
    <motionState vehicle="32" speed="228" time="11000" acceleration="2279"/>
    <motionState vehicle="2" speed="1384" time="11000" acceleration="1343"/>
    <motionState vehicle="33" speed="246" time="11000" acceleration="2463"/>
    <motionState vehicle="3" speed="1705" time="11000" acceleration="2269"/>
    <motionState vehicle="9" speed="2546" time="11000" acceleration="1372"/>
    <motionState vehicle="15" speed="644" time="11000" acceleration="977"/>
    <motionState vehicle="20" speed="733" time="11000" acceleration="-1951"/>
    <vehicle id="34" actorConfig="16" startTime="11000" ref="f_3.4"/>
    <motionState vehicle="34" speed="0" time="11000" acceleration="0"/>
    <motionState vehicle="4" speed="2037" time="11000" acceleration="2344"/>
    <motionState vehicle="10" speed="2226" time="11000" acceleration="2319"/>
    <motionState vehicle="16" speed="832" time="11000" acceleration="-739"/>
    <motionState vehicle="19" speed="1086" time="11000" acceleration="-276"/>
    <motionState vehicle="21" speed="454" time="11000" acceleration="1990"/>
    <motionState vehicle="22" speed="660" time="11000" acceleration="2049"/>
    <motionState vehicle="26" speed="151" time="11000" acceleration="1036"/>
    <vehicle id="35" actorConfig="15" startTime="11000" ref="f_4.7"/>
    <motionState vehicle="35" speed="0" time="11000" acceleration="0"/>
    <motionState vehicle="5" speed="994" time="11000" acceleration="896"/>
    <motionState vehicle="11" speed="1593" time="11000" acceleration="1706"/>
    <motionState vehicle="17" speed="526" time="11000" acceleration="1053"/>
    <motionState vehicle="25" speed="339" time="11000" acceleration="993"/>
    <motionState vehicle="0" speed="1332" time="12000" acceleration="943"/>
    <motionState vehicle="6" speed="1634" time="12000" acceleration="1324"/>
    <motionState vehicle="12" speed="666" time="12000" acceleration="538"/>
    <motionState vehicle="13" speed="1326" time="12000" acceleration="1765"/>
    <motionState vehicle="18" speed="602" time="12000" acceleration="1000"/>
    <motionState vehicle="23" speed="650" time="12000" acceleration="1380"/>
    <motionState vehicle="31" speed="361" time="12000" acceleration="2472"/>
    <motionState vehicle="1" speed="2464" time="12000" acceleration="3784"/>
    <motionState vehicle="14" speed="2587" time="12000" acceleration="3532"/>
    <motionState vehicle="24" speed="341" time="12000" acceleration="1068"/>
    <motionState vehicle="27" speed="214" time="12000" acceleration="892"/>
    <motionState vehicle="28" speed="484" time="12000" acceleration="1973"/>
    <motionState vehicle="29" speed="360" time="12000" acceleration="1104"/>
    <motionState vehicle="30" speed="530" time="12000" acceleration="2560"/>
    <motionState vehicle="32" speed="722" time="12000" acceleration="4942"/>
    <motionState vehicle="2" speed="1512" time="12000" acceleration="1283"/>
    <motionState vehicle="33" speed="790" time="12000" acceleration="5435"/>
    <motionState vehicle="3" speed="1869" time="12000" acceleration="1638"/>
    <motionState vehicle="9" speed="2625" time="12000" acceleration="782"/>
    <motionState vehicle="15" speed="743" time="12000" acceleration="984"/>
    <motionState vehicle="20" speed="802" time="12000" acceleration="683"/>
    <motionState vehicle="34" speed="43" time="12000" acceleration="433"/>
    <motionState vehicle="4" speed="2282" time="12000" acceleration="2445"/>
    <motionState vehicle="10" speed="2366" time="12000" acceleration="1403"/>
    <motionState vehicle="16" speed="701" time="12000" acceleration="-1313"/>
    <motionState vehicle="19" speed="837" time="12000" acceleration="-2488"/>
    <motionState vehicle="21" speed="621" time="12000" acceleration="1665"/>
    <motionState vehicle="22" speed="868" time="12000" acceleration="2084"/>
    <motionState vehicle="26" speed="255" time="12000" acceleration="1041"/>
    <motionState vehicle="35" speed="48" time="12000" acceleration="477"/>
    <vehicle id="36" actorConfig="9" startTime="12000" ref="f_4.8"/>
    <motionState vehicle="36" speed="0" time="12000" acceleration="0"/>
    <motionState vehicle="5" speed="1079" time="12000" acceleration="842"/>
    <motionState vehicle="11" speed="1744" time="12000" acceleration="1506"/>
    <motionState vehicle="17" speed="640" time="12000" acceleration="1140"/>
    <motionState vehicle="25" speed="434" time="12000" acceleration="951"/>
    <vehicle id="37" actorConfig="12" startTime="12000" ref="f_5.4"/>
    <motionState vehicle="37" speed="0" time="12000" acceleration="0"/>
    <motionState vehicle="0" speed="1433" time="13000" acceleration="1010"/>
    <motionState vehicle="6" speed="1769" time="13000" acceleration="1346"/>
    <motionState vehicle="12" speed="743" time="13000" acceleration="765"/>
    <motionState vehicle="13" speed="1479" time="13000" acceleration="1525"/>
    <motionState vehicle="18" speed="1002" time="13000" acceleration="4000"/>
    <motionState vehicle="23" speed="803" time="13000" acceleration="1525"/>
    <motionState vehicle="31" speed="609" time="13000" acceleration="2477"/>
    <motionState vehicle="1" speed="2774" time="13000" acceleration="3108"/>
    <motionState vehicle="14" speed="2703" time="13000" acceleration="1164"/>
    <motionState vehicle="24" speed="481" time="13000" acceleration="1397"/>
    <motionState vehicle="27" speed="306" time="13000" acceleration="912"/>
    <motionState vehicle="28" speed="655" time="13000" acceleration="1706"/>
    <motionState vehicle="29" speed="398" time="13000" acceleration="387"/>
    <motionState vehicle="30" speed="1025" time="13000" acceleration="4955"/>
    <motionState vehicle="32" speed="1215" time="13000" acceleration="4933"/>
    <motionState vehicle="2" speed="1631" time="13000" acceleration="1188"/>
    <motionState vehicle="33" speed="1315" time="13000" acceleration="5254"/>
    <motionState vehicle="3" speed="1997" time="13000" acceleration="1277"/>
    <motionState vehicle="9" speed="2627" time="13000" acceleration="21"/>
    <motionState vehicle="15" speed="846" time="13000" acceleration="1029"/>
    <motionState vehicle="20" speed="851" time="13000" acceleration="489"/>
    <motionState vehicle="34" speed="114" time="13000" acceleration="709"/>
    <vehicle id="38" actorConfig="19" startTime="13000" ref="f_3.5"/>
    <motionState vehicle="38" speed="0" time="13000" acceleration="0"/>
    <motionState vehicle="4" speed="2455" time="13000" acceleration="1733"/>
    <motionState vehicle="10" speed="2479" time="13000" acceleration="1120"/>
    <vehicle id="39" actorConfig="8" startTime="13000" ref="f_4.10"/>
    <motionState vehicle="39" speed="0" time="13000" acceleration="0"/>
    <motionState vehicle="16" speed="596" time="13000" acceleration="-1047"/>
    <motionState vehicle="19" speed="470" time="13000" acceleration="-3662"/>