<?xml version="1.0" encoding="UTF-8"?>

<!-- generated on 2023-10-31 01:46:18 by Eclipse SUMO netconvert Version 1.18.0
<configuration xmlns:xsi="http://www.w3.org/2001/XMLSchema-instance" xsi:noNamespaceSchemaLocation="http://sumo.dlr.de/xsd/netconvertConfiguration.xsd">

    <input>
        <sumo-net-file value="new.net.xml"/>
    </input>

    <output>
        <opendrive-output value="new.xodr"/>
    </output>

    <processing>
        <geometry.min-radius.fix.railways value="false"/>
        <geometry.max-grade.fix value="false"/>
        <offset.disable-normalization value="true"/>
        <lefthand value="0"/>
    </processing>

    <junctions>
        <no-turnarounds value="true"/>
        <junctions.corner-detail value="5"/>
        <junctions.limit-turn-speed value="5.50"/>
    </junctions>

    <pedestrian>
        <walkingareas value="0"/>
    </pedestrian>

</configuration>
-->

<OpenDRIVE>
    <header revMajor="1" revMinor="4" name="" version="1.00" date="Tue Oct 31 01:46:18 2023" north="300.00" south="-100.00" east="100.00" west="-300.00"/>
    <road name="" length="143.10194758" id="80" junction="-1">
        <link>
            <predecessor elementType="junction" elementId="1"/>
            <successor elementType="junction" elementId="2"/>
        </link>
        <type s="0" type="town"/>
        <planView>
            <geometry s="0.00000000" x="-110.39745447" y="199.80101262" hdg="-3.09012465" length="1.57371125">
                <line/>
            </geometry>
            <geometry s="1.57371125" x="-111.96908184" y="199.72005260" hdg="-3.09012465" length="1.92469614">
                <paramPoly3 aU="-0.00000000" bU="1.44351128" cU="1.44336142" dU="-0.96230635" aV="0.00000000" bV="0.00000000" cV="0.03941645" dV="-0.01834475" pRange="normalized"/>
            </geometry>
            <geometry s="3.49840739" x="-113.89001568" y="199.59999893" hdg="-3.07363726" length="1.90511828">
                <paramPoly3 aU="-0.00000000" bU="1.42883581" cU="1.42879934" dU="-0.95255056" aV="0.00000000" bV="0.00000000" cV="0.01967433" dV="-0.00901353" pRange="normalized"/>
            </geometry>
            <geometry s="5.40352567" x="-115.78997928" y="199.46000159" hdg="-3.06502311" length="1.88597906">
                <paramPoly3 aU="-0.00000000" bU="1.41447864" cU="1.41454870" dU="-0.94306459" aV="0.00000000" bV="0.00000000" cV="0.00074005" dV="0.00501004" pRange="normalized"/>
            </geometry>
            <geometry s="7.28950472" x="-117.66997627" y="199.31000210" hdg="-3.05335054" length="1.85879204">
                <paramPoly3 aU="-0.00000000" bU="1.39408634" cU="1.39401696" dU="-0.92939266" aV="0.00000000" bV="-0.00000000" cV="0.02874930" dV="-0.01248547" pRange="normalized"/>
            </geometry>
            <geometry s="9.14829676" x="-119.52002172" y="199.12999776" hdg="-3.03897346" length="1.85082077">
                <paramPoly3 aU="-0.00000000" bU="1.38811042" cU="1.38812078" dU="-0.92544687" aV="0.00000000" bV="0.00000000" cV="0.01479797" dV="-0.00433822" pRange="normalized"/>
            </geometry>
            <geometry s="10.99911753" x="-121.35999809" y="198.93000022" hdg="-3.02702796" length="1.82332810">
                <paramPoly3 aU="-0.00000000" bU="1.36749080" cU="1.36748053" dU="-0.91168748" aV="0.00000000" bV="0.00000000" cV="0.01829677" dV="-0.00664775" pRange="normalized"/>
            </geometry>
            <geometry s="12.82244563" x="-123.16999802" y="198.71000025" hdg="-3.01485187" length="1.81593288">
                <paramPoly3 aU="-0.00000000" bU="1.36194420" cU="1.36195710" dU="-0.90800636" aV="0.00000000" bV="-0.00000000" cV="0.01475390" dV="-0.00420212" pRange="normalized"/>
            </geometry>
            <geometry s="14.63837851" x="-124.96999414" y="198.47000082" hdg="-3.00244177" length="1.78900934">
                <paramPoly3 aU="-0.00000000" bU="1.34175104" cU="1.34174525" dU="-0.89453504" aV="0.00000000" bV="0.00000000" cV="0.01841359" dV="-0.00642969" pRange="normalized"/>
            </geometry>
            <geometry s="16.42738785" x="-126.74000132" y="198.20999980" hdg="-2.98937034" length="1.77226253">
                <paramPoly3 aU="-0.00000000" bU="1.32919112" cU="1.32919216" dU="-0.88616512" aV="0.00000000" bV="0.00000000" cV="0.01702110" dV="-0.00562036" pRange="normalized"/>
            </geometry>
            <geometry s="18.19965038" x="-128.48999776" y="197.93000037" hdg="-2.97644398" length="1.75582673">
                <paramPoly3 aU="-0.00000000" bU="1.31686411" cU="1.31686516" dU="-0.87794817" aV="0.00000000" bV="0.00000000" cV="0.01718181" dV="-0.00567390" pRange="normalized"/>
            </geometry>
            <geometry s="19.95547711" x="-130.21999768" y="197.63000042" hdg="-2.96327451" length="1.73968586">
                <paramPoly3 aU="-0.00000000" bU="1.30475829" cU="1.30475937" dU="-0.86987871" aV="0.00000000" bV="0.00000000" cV="0.01734266" dV="-0.00572752" pRange="normalized"/>
            </geometry>
            <geometry s="21.69516297" x="-131.92999164" y="197.31000162" hdg="-2.94985954" length="1.72388272">
                <paramPoly3 aU="-0.00000000" bU="1.29290520" cU="1.29291705" dU="-0.86198850" aV="0.00000000" bV="0.00000000" cV="0.01673334" dV="-0.00501095" pRange="normalized"/>
            </geometry>
            <geometry s="23.41904569" x="-133.62000307" y="196.96999936" hdg="-2.93560136" length="1.69859050">
                <paramPoly3 aU="-0.00000000" bU="1.27393640" cU="1.27391450" dU="-0.84931769" aV="0.00000000" bV="-0.00000000" cV="0.02079072" dV="-0.00793403" pRange="normalized"/>
            </geometry>
            <geometry s="25.11763619" x="-135.27999742" y="196.61000058" hdg="-2.92164467" length="1.69316641">
                <paramPoly3 aU="-0.00000000" bU="1.26986811" cU="1.26989200" dU="-0.84663740" aV="0.00000000" bV="0.00000000" cV="0.01450646" dV="-0.00365676" pRange="normalized"/>
            </geometry>
            <geometry s="26.81080260" x="-136.92996361" y="196.23000868" hdg="-2.90743592" length="1.66873473">
                <paramPoly3 aU="-0.00000000" bU="1.25154119" cU="1.25157312" dU="-0.83444499" aV="0.00000000" bV="0.00000000" cV="0.01788857" dV="-0.00468083" pRange="normalized"/>
            </geometry>
            <geometry s="28.47953733" x="-138.55003101" y="195.82999203" hdg="-2.89006874" length="1.66643053">
                <paramPoly3 aU="-0.00000000" bU="1.24981553" cU="1.24972714" dU="-0.83319661" aV="0.00000000" bV="0.00000000" cV="0.02891181" dV="-0.01313893" pRange="normalized"/>
            </geometry>
            <geometry s="30.14596786" x="-140.16001872" y="195.39999489" hdg="-2.87534056" length="1.64008379">
                <paramPoly3 aU="-0.00000000" bU="1.23005744" cU="1.23008926" dU="-0.82009356" aV="0.00000000" bV="0.00000000" cV="0.01045739" dV="-0.00168721" pRange="normalized"/>
            </geometry>
            <geometry s="31.78605165" x="-141.73997505" y="194.96000715" hdg="-2.86245207" length="1.62640072">
                <paramPoly3 aU="-0.00000000" bU="1.21979314" cU="1.21979433" dU="-0.81324364" aV="0.00000000" bV="-0.00000000" cV="0.01847409" dV="-0.00610632" pRange="normalized"/>
            </geometry>
            <geometry s="33.41245237" x="-143.29995964" y="194.50001224" hdg="-2.84717903" length="1.61315160">
                <paramPoly3 aU="-0.00000000" bU="1.20985279" cU="1.20991490" dU="-0.80667885" aV="0.00000000" bV="0.00000000" cV="0.01504979" dV="-0.00257787" pRange="normalized"/>
            </geometry>
            <geometry s="35.02560397" x="-144.84002214" y="194.01999284" hdg="-2.82869144" length="1.60331072">
                <paramPoly3 aU="-0.00000000" bU="1.20247381" cU="1.20236186" dU="-0.80163115" aV="0.00000000" bV="0.00000000" cV="0.03184977" dV="-0.01449914" pRange="normalized"/>
            </geometry>
            <geometry s="36.62891469" x="-146.36004143" y="193.50998582" hdg="-2.81189019" length="1.57801462">
                <paramPoly3 aU="-0.00000000" bU="1.18350567" cU="1.18351999" dU="-0.78904722" aV="0.00000000" bV="0.00000000" cV="0.01324553" dV="-0.00365914" pRange="normalized"/>
            </geometry>
            <geometry s="38.20692931" x="-147.84992421" y="192.99002705" hdg="-2.79878160" length="1.57557229">
                <paramPoly3 aU="-0.00000000" bU="1.18166728" cU="1.18177055" dU="-0.78792055" aV="0.00000000" bV="-0.00000000" cV="0.01046708" dV="0.00063183" pRange="normalized"/>
            </geometry>
            <geometry s="39.78250160" x="-149.33003690" y="192.44998602" hdg="-2.77946054" length="1.55798155">
                <paramPoly3 aU="-0.00000000" bU="1.16847664" cU="1.16827710" dU="-0.77890496" aV="0.00000000" bV="0.00000000" cV="0.03864949" dV="-0.01930755" pRange="normalized"/>
            </geometry>
            <geometry s="41.34048315" x="-150.77999698" y="191.88000120" hdg="-2.76287723" length="1.55241161">
                <paramPoly3 aU="-0.00000000" bU="1.16429892" cU="1.16442292" dU="-0.77633687" aV="0.00000000" bV="-0.00000000" cV="-0.00010456" dV="0.00659839" pRange="normalized"/>
            </geometry>
            <geometry s="42.89289476" x="-152.21997955" y="191.30000854" hdg="-2.74605426" length="1.53634600">
                <paramPoly3 aU="-0.00000000" bU="1.15224852" cU="1.15206701" dU="-0.76810948" aV="0.00000000" bV="0.00000000" cV="0.03769942" dV="-0.01807784" pRange="normalized"/>
            </geometry>
            <geometry s="44.42924076" x="-153.63001370" y="190.68999398" hdg="-2.72768452" length="1.52199976">
                <paramPoly3 aU="-0.00000000" bU="1.14149027" cU="1.14158919" dU="-0.76111673" aV="0.00000000" bV="0.00000000" cV="0.00599540" dV="0.00260446" pRange="normalized"/>
            </geometry>
            <geometry s="45.95124052" x="-155.01999704" y="190.07000136" hdg="-2.71033424" length="1.51639025">
                <paramPoly3 aU="-0.00000000" bU="1.13728297" cU="1.13714496" dU="-0.75815519" aV="0.00000000" bV="0.00000000" cV="0.03343258" dV="-0.01562598" pRange="normalized"/>
            </geometry>
            <geometry s="47.46763078" x="-156.38999710" y="189.42000140" hdg="-2.69275881" length="1.50271080">
                <paramPoly3 aU="-0.00000000" bU="1.12702322" cU="1.12712357" dU="-0.75147519" aV="0.00000000" bV="-0.00000000" cV="0.00647835" dV="0.00236557" pRange="normalized"/>
            </geometry>
            <geometry s="48.97034157" x="-157.73999717" y="188.76000143" hdg="-2.67496462" length="1.49831981">
                <paramPoly3 aU="-0.00000000" bU="1.12372982" cU="1.12359137" dU="-0.74912163" aV="0.00000000" bV="-0.00000000" cV="0.03345212" dV="-0.01555723" pRange="normalized"/>
            </geometry>
            <geometry s="50.46866138" x="-159.06997420" y="188.07001358" hdg="-2.65695882" length="1.48531285">
                <paramPoly3 aU="-0.00000000" bU="1.11397229" cU="1.11410819" dU="-0.74281186" aV="0.00000000" bV="-0.00000000" cV="0.00515013" dV="0.00393270" pRange="normalized"/>
            </geometry>
            <geometry s="51.95397423" x="-160.37997606" y="187.37001322" hdg="-2.63712008" length="1.47366881">
                <paramPoly3 aU="-0.00000000" bU="1.10523781" cU="1.10506806" dU="-0.73679643" aV="0.00000000" bV="0.00000000" cV="0.03749393" dV="-0.01711105" pRange="normalized"/>
            </geometry>
            <geometry s="53.42764304" x="-161.66007776" y="186.63995487" hdg="-2.61571608" length="1.47476631">
                <paramPoly3 aU="-0.00000000" bU="1.10606763" cU="1.10607755" dU="-0.73743055" aV="0.00000000" bV="0.00000000" cV="0.01609491" dV="-0.00493652" pRange="normalized"/>
            </geometry>
            <geometry s="54.90240935" x="-162.92993403" y="185.89003969" hdg="-2.60000188" length="1.45444277">
                <paramPoly3 aU="-0.00000000" bU="1.09081971" cU="1.09090346" dU="-0.72734653" aV="0.00000000" bV="0.00000000" cV="0.01351946" dV="-0.00150346" pRange="normalized"/>
            </geometry>
            <geometry s="56.35685212" x="-164.16998018" y="185.13001249" hdg="-2.57934756" length="1.45357870">
                <paramPoly3 aU="-0.00000000" bU="1.09017026" cU="1.09009722" dU="-0.72681888" aV="0.00000000" bV="0.00000000" cV="0.03016198" dV="-0.01213839" pRange="normalized"/>
            </geometry>
            <geometry s="57.81043082" x="-165.39007736" y="184.33994886" hdg="-2.55741456" length="1.44766203">
                <paramPoly3 aU="-0.00000000" bU="1.08573887" cU="1.08568458" dU="-0.72383794" aV="0.00000000" bV="-0.00000000" cV="0.02384717" dV="-0.00999049" pRange="normalized"/>
            </geometry>
            <geometry s="59.25809285" x="-166.58996134" y="183.53002648" hdg="-2.54109053" length="1.43694986">
                <paramPoly3 aU="-0.00000000" bU="1.07770140" cU="1.07780327" dU="-0.71860271" aV="0.00000000" bV="0.00000000" cV="0.00847893" dV="0.00129563" pRange="normalized"/>
            </geometry>
            <geometry s="60.69504271" x="-167.76995697" y="182.71003071" hdg="-2.52174747" length="1.43821002">
                <paramPoly3 aU="-0.00000000" bU="1.07864349" cU="1.07857211" dU="-0.71913717" aV="0.00000000" bV="0.00000000" cV="0.03004758" dV="-0.01202796" pRange="normalized"/>
            </geometry>
            <geometry s="62.13325273" x="-168.93003961" y="181.85997038" hdg="-2.49948499" length="1.43397332">
                <paramPoly3 aU="-0.00000000" bU="1.07546931" cU="1.07546983" dU="-0.71704838" aV="0.00000000" bV="0.00000000" cV="0.02097001" dV="-0.00697262" pRange="normalized"/>
            </geometry>
            <geometry s="63.56722605" x="-170.06996712" y="180.99002561" hdg="-2.47993681" length="1.43061486">
                <paramPoly3 aU="-0.00000000" bU="1.07294775" cU="1.07299742" dU="-0.71541700" aV="0.00000000" bV="-0.00000000" cV="0.01865593" dV="-0.00462245" pRange="normalized"/>
            </geometry>
            <geometry s="64.99784092" x="-171.18999690" y="180.10000253" hdg="-2.45808452" length="1.42003021">
                <paramPoly3 aU="-0.00000000" bU="1.06500911" cU="1.06495471" dU="-0.71005618" aV="0.00000000" bV="-0.00000000" cV="0.02819113" dV="-0.01096343" pRange="normalized"/>
            </geometry>
            <geometry s="66.41787113" x="-172.28005981" y="179.18994905" hdg="-2.43602475" length="1.41756858">
                <paramPoly3 aU="-0.00000000" bU="1.06316782" cU="1.06312158" dU="-0.70880240" aV="0.00000000" bV="0.00000000" cV="0.02361485" dV="-0.00951804" pRange="normalized"/>
            </geometry>
            <geometry s="67.83543971" x="-173.34997115" y="178.26002547" hdg="-2.41845788" length="1.42341889">
                <paramPoly3 aU="-0.00000000" bU="1.06755283" cU="1.06764107" dU="-0.71183113" aV="0.00000000" bV="0.00000000" cV="0.01117730" dV="-0.00037241" pRange="normalized"/>
            </geometry>
            <geometry s="69.25885860" x="-174.40996605" y="177.31003119" hdg="-2.39856305" length="1.41495888">
                <paramPoly3 aU="-0.00000000" bU="1.06120527" cU="1.06114565" dU="-0.70751894" aV="0.00000000" bV="0.00000000" cV="0.02880070" dV="-0.01128777" pRange="normalized"/>
            </geometry>
            <geometry s="70.67381748" x="-175.44003205" y="176.33996921" hdg="-2.37619219" length="1.41425453">
                <paramPoly3 aU="-0.00000000" bU="1.06067987" cU="1.06067989" dU="-0.70719062" aV="0.00000000" bV="0.00000000" cV="0.02120976" dV="-0.00706994" pRange="normalized"/>
            </geometry>
            <geometry s="72.08807201" x="-176.45000000" y="175.35000000" hdg="-2.35619452" length="1.41425033">
                <paramPoly3 aU="-0.00000000" bU="1.06067672" cU="1.06067669" dU="-0.70718849" aV="0.00000000" bV="0.00000000" cV="0.02121388" dV="-0.00707267" pRange="normalized"/>
            </geometry>
            <geometry s="73.50232234" x="-177.43996630" y="174.34003508" hdg="-2.33619677" length="1.41496615">
                <paramPoly3 aU="-0.00000000" bU="1.06121044" cU="1.06126907" dU="-0.70760291" aV="0.00000000" bV="0.00000000" cV="0.01845633" dV="-0.00431647" pRange="normalized"/>
            </geometry>
            <geometry s="74.91728848" x="-178.41003300" y="173.30996406" hdg="-2.31361380" length="1.40930227">
                <paramPoly3 aU="-0.00000000" bU="1.05696529" cU="1.05683880" dU="-0.70462962" aV="0.00000000" bV="-0.00000000" cV="0.03230797" dV="-0.01449482" pRange="normalized"/>
            </geometry>
            <geometry s="76.32659076" x="-179.35002993" y="172.25996607" hdg="-2.29361987" length="1.41754670">
                <paramPoly3 aU="-0.00000000" bU="1.06315169" cU="1.06319632" dU="-0.70885030" aV="0.00000000" bV="-0.00000000" cV="0.01274592" dV="-0.00238246" pRange="normalized"/>
            </geometry>
            <geometry s="77.74413746" x="-180.27993948" y="171.19007105" hdg="-2.27636423" length="1.42004169">
                <paramPoly3 aU="-0.00000000" bU="1.06501705" cU="1.06507831" dU="-0.71014260" aV="0.00000000" bV="0.00000000" cV="0.01825801" dV="-0.00416130" pRange="normalized"/>
            </geometry>
            <geometry s="79.16417915" x="-181.18999989" y="170.10000013" hdg="-2.25379731" length="1.41658183">
                <paramPoly3 aU="-0.00000000" bU="1.06242218" cU="1.06235179" dU="-0.70832477" aV="0.00000000" bV="-0.00000000" cV="0.02986115" dV="-0.01191303" pRange="normalized"/>
            </geometry>
            <geometry s="80.58076098" x="-182.07003248" y="168.98995819" hdg="-2.23122131" length="1.41996167">
                <paramPoly3 aU="-0.00000000" bU="1.06496047" cU="1.06495991" dU="-0.71004242" aV="0.00000000" bV="0.00000000" cV="0.02107623" dV="-0.00704473" pRange="normalized"/>
            </geometry>
            <geometry s="82.00072265" x="-182.92997909" y="167.86002804" hdg="-2.21148383" length="1.42420614">
                <paramPoly3 aU="-0.00000000" bU="1.06814152" cU="1.06818573" dU="-0.71220732" aV="0.00000000" bV="-0.00000000" cV="0.01885176" dV="-0.00485753" pRange="normalized"/>
            </geometry>
            <geometry s="83.42492879" x="-183.77002319" y="166.70996746" hdg="-2.18982684" length="1.43694865">
                <paramPoly3 aU="-0.00000000" bU="1.07770065" cU="1.07760781" dU="-0.71847304" aV="0.00000000" bV="-0.00000000" cV="0.02960355" dV="-0.01275475" pRange="normalized"/>
            </geometry>
            <geometry s="84.86187744" x="-184.59001860" y="165.52997279" hdg="-2.17039272" length="1.43382773">
                <paramPoly3 aU="-0.00000000" bU="1.07536229" cU="1.07539645" dU="-0.71698514" aV="0.00000000" bV="-0.00000000" cV="0.01453422" dV="-0.00345796" pRange="normalized"/>
            </geometry>
            <geometry s="86.29570517" x="-185.38996625" y="164.34005128" hdg="-2.15300741" length="1.43967973">
                <paramPoly3 aU="-0.00000000" bU="1.07974732" cU="1.07978659" dU="-0.71993745" aV="0.00000000" bV="-0.00000000" cV="0.01882759" dV="-0.00497684" pRange="normalized"/>
            </geometry>
            <geometry s="87.73538491" x="-186.16999132" y="163.13001380" hdg="-2.13195957" length="1.45448845">
                <paramPoly3 aU="-0.00000000" bU="1.09085270" cU="1.09083579" dU="-0.72731125" aV="0.00000000" bV="-0.00000000" cV="0.02543601" dV="-0.00898554" pRange="normalized"/>
            </geometry>
            <geometry s="89.18987335" x="-186.93004172" y="161.88993028" hdg="-2.11003423" length="1.44742763">
                <paramPoly3 aU="-0.00000000" bU="1.08556218" cU="1.08547398" dU="-0.72370226" aV="0.00000000" bV="-0.00000000" cV="0.02774746" dV="-0.01230881" pRange="normalized"/>
            </geometry>
            <geometry s="90.63730098" x="-187.65997398" y="160.64004522" hdg="-2.09292844" length="1.45994677">
                <paramPoly3 aU="-0.00000000" bU="1.09494738" cU="1.09508451" dU="-0.73013180" aV="0.00000000" bV="-0.00000000" cV="0.00569622" dV="0.00362397" pRange="normalized"/>
            </geometry>
            <geometry s="92.09724775" x="-188.37999058" y="159.37001717" hdg="-2.07259332" length="1.47185979">
                <paramPoly3 aU="-0.00000000" bU="1.10388103" cU="1.10371181" dU="-0.73589239" aV="0.00000000" bV="0.00000000" cV="0.03744257" dV="-0.01707564" pRange="normalized"/>
            </geometry>
            <geometry s="93.56910754" x="-189.07002502" y="158.06995198" hdg="-2.05115983" length="1.47135603">
                <paramPoly3 aU="-0.00000000" bU="1.10350734" cU="1.10356323" dU="-0.73576992" aV="0.00000000" bV="0.00000000" cV="0.01342475" dV="-0.00224573" pRange="normalized"/>
            </geometry>
            <geometry s="95.04046357" x="-189.74000151" y="156.75999698" hdg="-2.03293301" length="1.48934151">
                <paramPoly3 aU="-0.00000000" bU="1.11699657" cU="1.11693132" dU="-0.74468124" aV="0.00000000" bV="0.00000000" cV="0.02680372" dV="-0.01116524" pRange="normalized"/>
            </geometry>
            <geometry s="96.52980508" x="-190.39000147" y="155.41999690" hdg="-2.01492685" length="1.48977753">
                <paramPoly3 aU="-0.00000000" bU="1.11732384" cU="1.11737461" dU="-0.74497526" aV="0.00000000" bV="-0.00000000" cV="0.01367099" dV="-0.00249278" pRange="normalized"/>
            </geometry>
            <geometry s="98.01958261" x="-191.02000143" y="154.06999685" hdg="-1.99714804" length="1.50877208">
                <paramPoly3 aU="-0.00000000" bU="1.13156988" cU="1.13151108" dU="-0.75439878" aV="0.00000000" bV="0.00000000" cV="0.02606998" dV="-0.01076231" pRange="normalized"/>
            </geometry>
            <geometry s="99.52835469" x="-191.62998244" y="152.69004053" hdg="-1.97960248" length="1.51014511">
                <paramPoly3 aU="-0.00000000" bU="1.13259613" cU="1.13270680" dU="-0.75521603" aV="0.00000000" bV="0.00000000" cV="0.01044691" dV="0.00071711" pRange="normalized"/>
            </geometry>
            <geometry s="101.03849980" x="-192.22001928" y="151.29995290" hdg="-1.95925388" length="1.52639956">
                <paramPoly3 aU="-0.00000000" bU="1.14478978" cU="1.14458018" dU="-0.76310897" aV="0.00000000" bV="0.00000000" cV="0.03916536" dV="-0.01960105" pRange="normalized"/>
            </geometry>
            <geometry s="102.56489936" x="-192.78000127" y="149.87999673" hdg="-1.94219527" length="1.53212066">
                <paramPoly3 aU="-0.00000000" bU="1.14908088" cU="1.14920213" dU="-0.76618885" aV="0.00000000" bV="-0.00000000" cV="0.00010875" dV="0.00636442" pRange="normalized"/>
            </geometry>
            <geometry s="104.09702002" x="-193.32999606" y="148.45001065" hdg="-1.92538908" length="1.54989545">
                <paramPoly3 aU="-0.00000000" bU="1.16241131" cU="1.16223205" dU="-0.77488148" aV="0.00000000" bV="0.00000000" cV="0.03735121" dV="-0.01807601" pRange="normalized"/>
            </geometry>
            <geometry s="105.64691547" x="-193.85001048" y="146.98997009" hdg="-1.90777445" length="1.56533289">
                <paramPoly3 aU="-0.00000000" bU="1.17399217" cU="1.17406657" dU="-0.78275642" aV="0.00000000" bV="-0.00000000" cV="0.00619778" dV="0.00182707" pRange="normalized"/>
            </geometry>
            <geometry s="107.21224836" x="-194.35998333" y="145.51005002" hdg="-1.89254652" length="1.56550913">
                <paramPoly3 aU="-0.00000000" bU="1.17412074" cU="1.17409433" dU="-0.78280060" aV="0.00000000" bV="-0.00000000" cV="0.02506377" dV="-0.00925230" pRange="normalized"/>
            </geometry>
            <geometry s="108.77775749" x="-194.84001023" y="144.01996725" hdg="-1.87349225" length="1.58807305">
                <paramPoly3 aU="-0.00000000" bU="1.19104619" cU="1.19102557" dU="-0.79407204" aV="0.00000000" bV="0.00000000" cV="0.02222873" dV="-0.00821132" pRange="normalized"/>
            </geometry>
            <geometry s="110.36583054" x="-195.30000431" y="142.49998533" hdg="-1.85684771" length="1.60159380">
                <paramPoly3 aU="-0.00000000" bU="1.20118791" cU="1.20118669" dU="-0.80083883" aV="0.00000000" bV="0.00000000" cV="0.01870185" dV="-0.00628701" pRange="normalized"/>
            </geometry>
            <geometry s="111.96742434" x="-195.73999332" y="140.96002410" hdg="-1.84141016" length="1.61561798">
                <paramPoly3 aU="-0.00000000" bU="1.21170389" cU="1.21174627" dU="-0.80789187" aV="0.00000000" bV="0.00000000" cV="0.01586619" dV="-0.00355674" pRange="normalized"/>
            </geometry>
            <geometry s="113.58304232" x="-196.16000770" y="139.39997024" hdg="-1.82402702" length="1.61768885">
                <paramPoly3 aU="-0.00000000" bU="1.21325922" cU="1.21316395" dU="-0.80882112" aV="0.00000000" bV="0.00000000" cV="0.02919365" dV="-0.01341918" pRange="normalized"/>
            </geometry>
            <geometry s="115.20073117" x="-196.54999888" y="137.83000460" hdg="-1.80908345" length="1.64453264">
                <paramPoly3 aU="-0.00000000" bU="1.23339145" cU="1.23347236" dU="-0.82236333" aV="0.00000000" bV="-0.00000000" cV="0.00626873" dV="0.00213042" pRange="normalized"/>
            </geometry>
            <geometry s="116.84526381" x="-196.93000248" y="136.22998908" hdg="-1.79373595" length="1.65737884">
                <paramPoly3 aU="-0.00000000" bU="1.24302682" cU="1.24289834" dU="-0.82864162" aV="0.00000000" bV="0.00000000" cV="0.03266843" dV="-0.01582862" pRange="normalized"/>
            </geometry>
            <geometry s="118.50264266" x="-197.28000059" y="134.60999722" hdg="-1.77937455" length="1.67484927">
                <paramPoly3 aU="-0.00000000" bU="1.25612985" cU="1.25621127" dU="-0.83751579" aV="0.00000000" bV="0.00000000" cV="0.00317738" dV="0.00378465" pRange="normalized"/>
            </geometry>
            <geometry s="120.17749193" x="-197.61999411" y="132.97002992" hdg="-1.76527625" length="1.68877654">
                <paramPoly3 aU="-0.00000000" bU="1.26657302" cU="1.26650413" dU="-0.84439520" aV="0.00000000" bV="0.00000000" cV="0.02875525" dV="-0.01210518" pRange="normalized"/>
            </geometry>
            <geometry s="121.86626847" x="-197.93000633" y="131.30996475" hdg="-1.74854138" length="1.70482092">
                <paramPoly3 aU="-0.00000000" bU="1.27860958" cU="1.27860845" dU="-0.85244480" aV="0.00000000" bV="-0.00000000" cV="0.01749990" dV="-0.00588908" pRange="normalized"/>
            </geometry>
            <geometry s="123.57108939" x="-198.22000042" y="129.62999748" hdg="-1.73498516" length="1.72131546">
                <paramPoly3 aU="-0.00000000" bU="1.29098066" cU="1.29097955" dU="-0.86069108" aV="0.00000000" bV="0.00000000" cV="0.01733291" dV="-0.00583311" pRange="normalized"/>
            </geometry>
            <geometry s="125.29240485" x="-198.49000037" y="127.92999757" hdg="-1.72168751" length="1.73805234">
                <paramPoly3 aU="-0.00000000" bU="1.30353349" cU="1.30353241" dU="-0.86905856" aV="0.00000000" bV="0.00000000" cV="0.01716684" dV="-0.00577747" pRange="normalized"/>
            </geometry>
            <geometry s="127.03045719" x="-198.73999635" y="126.21002629" hdg="-1.70864467" length="1.75520427">
                <paramPoly3 aU="-0.00000000" bU="1.31639472" cU="1.31644624" dU="-0.87768425" aV="0.00000000" bV="-0.00000000" cV="0.01329869" dV="-0.00201920" pRange="normalized"/>
            </geometry>
            <geometry s="128.78566145" x="-198.97000379" y="124.46996913" hdg="-1.69304099" length="1.77130630">
                <paramPoly3 aU="-0.00000000" bU="1.32847369" cU="1.32835805" dU="-0.88560672" aV="0.00000000" bV="0.00000000" cV="0.03169394" dV="-0.01558625" pRange="normalized"/>
            </geometry>
            <geometry s="130.55696776" x="-199.17000024" y="122.70999784" hdg="-1.68052320" length="1.79011944">
                <paramPoly3 aU="-0.00000000" bU="1.34258373" cU="1.34265399" dU="-0.89513635" aV="0.00000000" bV="0.00000000" cV="0.00171971" dV="0.00434510" pRange="normalized"/>
            </geometry>
            <geometry s="132.34708719" x="-199.36000020" y="120.92999793" hdg="-1.66825197" length="1.80710299">
                <paramPoly3 aU="-0.00000000" bU="1.35532153" cU="1.35520968" dU="-0.90350580" aV="0.00000000" bV="0.00000000" cV="0.03140319" dV="-0.01550137" pRange="normalized"/>
            </geometry>
            <geometry s="134.15419018" x="-199.52000003" y="119.12999968" hdg="-1.65622333" length="1.82615822">
                <paramPoly3 aU="-0.00000000" bU="1.36961291" cU="1.36968339" dU="-0.91315508" aV="0.00000000" bV="0.00000000" cV="0.00108344" dV="0.00475143" pRange="normalized"/>
            </geometry>
            <geometry s="135.98034840" x="-199.66999853" y="117.31001993" hdg="-1.64423340" length="1.85394427">
                <paramPoly3 aU="-0.00000000" bU="1.39045071" cU="1.39038234" dU="-0.92696834" aV="0.00000000" bV="0.00000000" cV="0.02842726" dV="-0.01236694" pRange="normalized"/>
            </geometry>
            <geometry s="137.83429267" x="-199.79000157" y="115.45997355" hdg="-1.63002623" length="1.86266625">
                <paramPoly3 aU="-0.00000000" bU="1.39699518" cU="1.39699681" dU="-0.93136011" aV="0.00000000" bV="0.00000000" cV="0.01527139" dV="-0.00499280" pRange="normalized"/>
            </geometry>
            <geometry s="139.69695893" x="-199.89000002" y="113.59999949" hdg="-1.61888468" length="1.88268806">
                <paramPoly3 aU="-0.00000000" bU="1.41200537" cU="1.41211143" dU="-0.94147211" aV="0.00000000" bV="-0.00000000" cV="0.00804934" dV="0.00242489" pRange="normalized"/>
            </geometry>
            <geometry s="141.57964698" x="-199.97003631" y="111.71902768" hdg="-1.60233063" length="1.52230060">
                <line/>
            </geometry>
        </planView>
        <elevationProfile>
            <elevation s="0" a="0.00" b="0" c="0" d="0"/>
        </elevationProfile>
        <lateralProfile/>
        <lanes>
            <laneSection s="0">
                <center>
                    <lane id="0" type="none" level="true">
                        <link/>