<?xml version="1.0" encoding="UTF-8"?>

<!-- generated on 2023-09-26 19:26:20 by Eclipse SUMO netedit Version 1.18.0
-->

<routes xmlns:xsi="http://www.w3.org/2001/XMLSchema-instance" xsi:noNamespaceSchemaLocation="http://sumo.dlr.de/xsd/routes_file.xsd">
    <!-- VTypes -->
    <vType id ="DEFAULT_VEHTYPE" decel="2.00" accel="3.60" maxSpeed="25" length="5" color="yellow" speedFactor="1.9" speedDev="0.5" jmIgnoreFoeProb="0.0" tau="0.20" sigma="0.90"/>
    <vType id="EGO_VEHTYPE" color="red" impatience="1.0" maxSpeed="55.56" laneChangeModel="LC2013" lcStrategic="-1.0" lcCooperative="-1.0" lcSpeedGain="0.0" lcPushy="1.00" lcImpatience="1.00" jmIgnoreFoeProb="0.8" carFollowModel="EIDM" accel="2.60" decel="2.50" collisionMinGapFactor="0.0" tau="0.50" sigmagap="0.80" sigmaerror="0.80" eidmaccfactor="1.2" eidmdelta="5" eidmmingap="2.5" eidmtau="1.0"/>
    <!-- Vehicles, persons and containers (sorted by depart) -->
    <flow id="f_0_default" type="DEFAULT_VEHTYPE" begin="0.00" from="-E29" to="E31" end="200.00" vehsPerHour="1800"/>
    <flow id="f_1_default" type="DEFAULT_VEHTYPE" begin="0.00" from="-E32" to="E30" end="200.00" vehsPerHour="1800"/>
    <flow id="f_0_ego" type="EGO_VEHTYPE" begin="0.00" from="-E29" to="E31" end="200.00" vehsPerHour="1800"/>
    <flow id="f_1_ego" type="EGO_VEHTYPE" begin="5.00" from="-E32" to="E30" end="200.00" vehsPerHour="1800"/>
</routes>
