<?xml version="1.0" encoding="UTF-8"?>

<!-- generated on 2023-11-06 18:47:21 by Eclipse SUMO netedit Version 1.18.0
<configuration xmlns:xsi="http://www.w3.org/2001/XMLSchema-instance" xsi:noNamespaceSchemaLocation="http://sumo.dlr.de/xsd/neteditConfiguration.xsd">

    <input>
        <sumo-net-file value="C:\Users\vinay\Desktop\ECE_699\sumo_road\INTERSECTION_FINAL\lanelet_sim\osm_sim\intersec.net.xml"/>
    </input>

    <output>
        <output-file value="C:\Users\vinay\Desktop\ECE_699\sumo_road\INTERSECTION_FINAL\lanelet_sim\osm_sim\intersec.net.xml"/>
    </output>

    <processing>
        <geometry.min-radius.fix.railways value="false"/>
        <geometry.max-grade.fix value="false"/>
        <offset.disable-normalization value="true"/>
        <lefthand value="0"/>
    </processing>

    <junctions>
        <no-turnarounds value="true"/>
        <junctions.corner-detail value="5"/>
        <junctions.limit-turn-speed value="5.50"/>
        <rectangular-lane-cut value="0"/>
    </junctions>

    <pedestrian>
        <walkingareas value="0"/>
    </pedestrian>

</configuration>
-->

<net version="1.16" junctionCornerDetail="5" limitTurnSpeed="5.50" xmlns:xsi="http://www.w3.org/2001/XMLSchema-instance" xsi:noNamespaceSchemaLocation="http://sumo.dlr.de/xsd/net_file.xsd">

    <location netOffset="0.00,0.00" convBoundary="-200.00,-200.00,250.00,200.10" origBoundary="-10000000000.00,-10000000000.00,10000000000.00,10000000000.00" projParameter="!"/>

    <edge id=":J2_0" function="internal">
        <lane id=":J2_0_0" index="0" speed="6.51" length="9.04" shape="-4.79,10.41 -5.15,7.95 -6.20,6.20 -7.95,5.15 -10.40,4.80"/>
    </edge>
    <edge id=":J2_1" function="internal">
        <lane id=":J2_1_0" index="0" speed="13.89" length="20.80" shape="-4.79,10.41 -4.80,-10.40"/>
        <lane id=":J2_1_1" index="1" speed="13.89" length="20.80" shape="-1.59,10.40 -1.60,-10.40"/>
    </edge>
    <edge id=":J2_3" function="internal">
        <lane id=":J2_3_0" index="0" speed="9.26" length="5.02" shape="-1.59,10.40 -0.89,5.43"/>
    </edge>
    <edge id=":J2_16" function="internal">
        <lane id=":J2_16_0" index="0" speed="9.26" length="14.33" shape="-0.89,5.43 -0.85,5.15 1.40,1.40 5.15,-0.85 10.40,-1.60"/>
    </edge>
    <edge id=":J2_4" function="internal">
        <lane id=":J2_4_0" index="0" speed="6.51" length="9.03" shape="10.40,4.80 7.95,5.15 6.20,6.20 5.15,7.95 4.81,10.40"/>
    </edge>
    <edge id=":J2_5" function="internal">
        <lane id=":J2_5_0" index="0" speed="13.89" length="20.80" shape="10.40,4.80 -10.40,4.80"/>
        <lane id=":J2_5_1" index="1" speed="13.89" length="20.80" shape="10.40,1.60 -10.40,1.60"/>
    </edge>
    <edge id=":J2_7" function="internal">
        <lane id=":J2_7_0" index="0" speed="9.26" length="5.01" shape="10.40,1.60 5.44,0.89"/>
    </edge>
    <edge id=":J2_17" function="internal">
        <lane id=":J2_17_0" index="0" speed="9.26" length="14.34" shape="5.44,0.89 5.15,0.85 1.40,-1.40 -0.85,-5.15 -1.60,-10.40"/>
    </edge>
    <edge id=":J2_8" function="internal">
        <lane id=":J2_8_0" index="0" speed="6.51" length="9.03" shape="4.80,-10.40 5.15,-7.95 6.20,-6.20 7.95,-5.15 10.40,-4.80"/>
    </edge>
    <edge id=":J2_9" function="internal">
        <lane id=":J2_9_0" index="0" speed="13.89" length="20.80" shape="4.80,-10.40 4.81,10.40"/>
        <lane id=":J2_9_1" index="1" speed="13.89" length="20.80" shape="1.60,-10.40 1.61,10.40"/>
    </edge>
    <edge id=":J2_11" function="internal">
        <lane id=":J2_11_0" index="0" speed="9.26" length="5.01" shape="1.60,-10.40 0.89,-5.45"/>
    </edge>
    <edge id=":J2_18" function="internal">
        <lane id=":J2_18_0" index="0" speed="9.26" length="14.35" shape="0.89,-5.45 0.85,-5.15 -1.40,-1.40 -5.15,0.85 -10.40,1.60"/>
    </edge>
    <edge id=":J2_12" function="internal">
        <lane id=":J2_12_0" index="0" speed="6.51" length="9.03" shape="-10.40,-4.80 -7.95,-5.15 -6.20,-6.20 -5.15,-7.95 -4.80,-10.40"/>
    </edge>
    <edge id=":J2_13" function="internal">
        <lane id=":J2_13_0" index="0" speed="13.89" length="20.80" shape="-10.40,-4.80 10.40,-4.80"/>
        <lane id=":J2_13_1" index="1" speed="13.89" length="20.80" shape="-10.40,-1.60 10.40,-1.60"/>
    </edge>
    <edge id=":J2_15" function="internal">
        <lane id=":J2_15_0" index="0" speed="9.26" length="5.01" shape="-10.40,-1.60 -5.44,-0.89"/>
    </edge>
    <edge id=":J2_19" function="internal">
        <lane id=":J2_19_0" index="0" speed="9.26" length="14.34" shape="-5.44,-0.89 -5.15,-0.85 -1.40,1.40 0.85,5.15 1.61,10.40"/>
    </edge>
    <edge id=":J3_0" function="internal">
        <lane id=":J3_0_0" index="0" speed="9.72" length="0.10" shape="50.00,4.80 50.00,4.80"/>
        <lane id=":J3_0_1" index="1" speed="9.72" length="0.10" shape="50.00,1.60 50.00,1.60"/>
    </edge>
    <edge id=":J3_2" function="internal">
        <lane id=":J3_2_0" index="0" speed="9.72" length="0.10" shape="50.00,-4.80 50.00,-4.80"/>
        <lane id=":J3_2_1" index="1" speed="9.72" length="0.10" shape="50.00,-1.60 50.00,-1.60"/>
    </edge>
    <edge id=":J5_0" function="internal">
        <lane id=":J5_0_0" index="0" speed="18.05" length="0.10" shape="-4.80,-100.00 -4.80,-100.00"/>
        <lane id=":J5_0_1" index="1" speed="18.05" length="0.10" shape="-1.60,-100.00 -1.60,-100.00"/>
    </edge>
    <edge id=":J5_2" function="internal">
        <lane id=":J5_2_0" index="0" speed="18.05" length="0.10" shape="4.80,-100.00 4.80,-100.00"/>
        <lane id=":J5_2_1" index="1" speed="18.05" length="0.10" shape="1.60,-100.00 1.60,-100.00"/>
    </edge>
    <edge id=":J7_0" function="internal">
        <lane id=":J7_0_0" index="0" speed="11.12" length="0.10" shape="150.00,4.80 150.00,4.80"/>
        <lane id=":J7_0_1" index="1" speed="11.12" length="0.10" shape="150.00,1.60 150.00,1.60"/>
    </edge>
    <edge id=":J7_2" function="internal">
        <lane id=":J7_2_0" index="0" speed="9.72" length="0.10" shape="150.00,-4.80 150.00,-4.80"/>
        <lane id=":J7_2_1" index="1" speed="9.72" length="0.10" shape="150.00,-1.60 150.00,-1.60"/>
    </edge>

    <edge id="-E0" from="J2" to="J1" priority="-1">
        <lane id="-E0_0" index="0" speed="13.89" length="189.60" shape="-10.40,4.80 -200.00,4.80"/>
        <lane id="-E0_1" index="1" speed="13.89" length="189.60" shape="-10.40,1.60 -200.00,1.60"/>
    </edge>
    <edge id="-E1" from="J3" to="J2" priority="-1">
        <lane id="-E1_0" index="0" speed="13.89" length="39.60" shape="50.00,4.80 10.40,4.80"/>
        <lane id="-E1_1" index="1" speed="13.89" length="39.60" shape="50.00,1.60 10.40,1.60"/>
    </edge>
    <edge id="-E2" from="J2" to="J4" priority="-1" shape="0.00,0.00 0.10,200.10">
        <lane id="-E2_0" index="0" speed="13.89" length="189.60" shape="4.81,10.40 4.90,200.00"/>
        <lane id="-E2_1" index="1" speed="13.89" length="189.60" shape="1.61,10.40 1.70,200.00"/>
    </edge>
    <edge id="-E3" from="J5" to="J2" priority="-1">
        <lane id="-E3_0" index="0" speed="13.89" length="89.60" shape="4.80,-100.00 4.80,-10.40"/>
        <lane id="-E3_1" index="1" speed="13.89" length="89.60" shape="1.60,-100.00 1.60,-10.40"/>
    </edge>
    <edge id="-E5" from="J7" to="J3" priority="-1">
        <lane id="-E5_0" index="0" speed="5.56" length="100.00" shape="150.00,4.80 50.00,4.80"/>
        <lane id="-E5_1" index="1" speed="5.56" length="100.00" shape="150.00,1.60 50.00,1.60"/>
    </edge>
    <edge id="-E6" from="J8" to="J7" priority="-1">
        <lane id="-E6_0" index="0" speed="16.67" length="100.00" shape="250.00,4.80 150.00,4.80"/>
        <lane id="-E6_1" index="1" speed="16.67" length="100.00" shape="250.00,1.60 150.00,1.60"/>
    </edge>
    <edge id="-E7" from="J9" to="J5" priority="-1">
        <lane id="-E7_0" index="0" speed="22.22" length="100.00" shape="4.80,-200.00 4.80,-100.00"/>
        <lane id="-E7_1" index="1" speed="22.22" length="100.00" shape="1.60,-200.00 1.60,-100.00"/>
    </edge>
    <edge id="E0" from="J1" to="J2" priority="-1">
        <lane id="E0_0" index="0" speed="13.89" length="189.60" shape="-200.00,-4.80 -10.40,-4.80"/>
        <lane id="E0_1" index="1" speed="13.89" length="189.60" shape="-200.00,-1.60 -10.40,-1.60"/>
    </edge>
    <edge id="E1" from="J2" to="J3" priority="-1">
        <lane id="E1_0" index="0" speed="13.89" length="39.60" shape="10.40,-4.80 50.00,-4.80"/>
        <lane id="E1_1" index="1" speed="13.89" length="39.60" shape="10.40,-1.60 50.00,-1.60"/>
    </edge>
    <edge id="E2" from="J4" to="J2" priority="-1" shape="0.10,200.10 0.00,0.00">
        <lane id="E2_0" index="0" speed="13.89" length="189.60" shape="-4.70,200.00 -4.79,10.41"/>
        <lane id="E2_1" index="1" speed="13.89" length="189.60" shape="-1.50,200.00 -1.59,10.40"/>
    </edge>
    <edge id="E3" from="J2" to="J5" priority="-1">
        <lane id="E3_0" index="0" speed="13.89" length="89.60" shape="-4.80,-10.40 -4.80,-100.00"/>
        <lane id="E3_1" index="1" speed="13.89" length="89.60" shape="-1.60,-10.40 -1.60,-100.00"/>
    </edge>
    <edge id="E5" from="J3" to="J7" priority="-1">
        <lane id="E5_0" index="0" speed="5.56" length="100.00" shape="50.00,-4.80 150.00,-4.80"/>
        <lane id="E5_1" index="1" speed="5.56" length="100.00" shape="50.00,-1.60 150.00,-1.60"/>
    </edge>
    <edge id="E6" from="J7" to="J8" priority="-1">
        <lane id="E6_0" index="0" speed="13.89" length="100.00" shape="150.00,-4.80 250.00,-4.80"/>
        <lane id="E6_1" index="1" speed="13.89" length="100.00" shape="150.00,-1.60 250.00,-1.60"/>
    </edge>
    <edge id="E7" from="J5" to="J9" priority="-1">
        <lane id="E7_0" index="0" speed="22.22" length="100.00" shape="-4.80,-100.00 -4.80,-200.00"/>
        <lane id="E7_1" index="1" speed="22.22" length="100.00" shape="-1.60,-100.00 -1.60,-200.00"/>
    </edge>

    <tlLogic id="J2" type="static" programID="0" offset="0">
        <phase duration="42" state="GGGgrrrrGGGgrrrr"/>
        <phase duration="3"  state="yyyyrrrryyyyrrrr"/>
        <phase duration="42" state="rrrrGGGgrrrrGGGg"/>
        <phase duration="3"  state="rrrryyyyrrrryyyy"/>
    </tlLogic>

    <junction id="J1" type="dead_end" x="-200.00" y="0.00" incLanes="-E0_0 -E0_1" intLanes="" shape="-200.00,0.00 -200.00,6.40 -200.00,0.00"/>
    <junction id="J2" type="traffic_light" x="0.00" y="0.00" incLanes="E2_0 E2_1 -E1_0 -E1_1 -E3_0 -E3_1 E0_0 E0_1" intLanes=":J2_0_0 :J2_1_0 :J2_1_1 :J2_16_0 :J2_4_0 :J2_5_0 :J2_5_1 :J2_17_0 :J2_8_0 :J2_9_0 :J2_9_1 :J2_18_0 :J2_12_0 :J2_13_0 :J2_13_1 :J2_19_0" shape="-6.39,10.41 6.41,10.40 6.85,8.18 7.40,7.40 8.18,6.84 9.18,6.51 10.40,6.40 10.40,-6.40 8.18,-6.84 7.40,-7.40 6.84,-8.18 6.51,-9.18 6.40,-10.40 -6.40,-10.40 -6.84,-8.18 -7.40,-7.40 -8.18,-6.84 -9.18,-6.51 -10.40,-6.40 -10.40,6.40 -8.18,6.85 -7.40,7.40 -6.84,8.18 -6.51,9.18">
        <request index="0"  response="0000000001100000" foes="0000000001100000" cont="0"/>
        <request index="1"  response="1111000011100000" foes="1111100011100000" cont="0"/>
        <request index="2"  response="1111000011100000" foes="1111100011100000" cont="0"/>
        <request index="3"  response="1110011011100000" foes="1110011011100000" cont="1"/>
        <request index="4"  response="0000000000000000" foes="0000011000000000" cont="0"/>
        <request index="5"  response="0000100000001000" foes="1000111000001111" cont="0"/>
        <request index="6"  response="0000100000001000" foes="1000111000001111" cont="0"/>
        <request index="7"  response="0110100000001000" foes="0110111000001110" cont="1"/>
        <request index="8"  response="0110000000000000" foes="0110000000000000" cont="0"/>
        <request index="9"  response="1110000011110000" foes="1110000011111000" cont="0"/>
        <request index="10" response="1110000011110000" foes="1110000011111000" cont="0"/>
        <request index="11" response="1110000011100110" foes="1110000011100110" cont="1"/>
        <request index="12" response="0000000000000000" foes="0000000000000110" cont="0"/>
        <request index="13" response="0000100000001000" foes="0000111110001110" cont="0"/>
        <request index="14" response="0000100000001000" foes="0000111110001110" cont="0"/>
        <request index="15" response="0000100001101000" foes="0000111001101110" cont="1"/>
    </junction>
    <junction id="J3" type="priority" x="50.00" y="0.00" incLanes="-E5_0 -E5_1 E1_0 E1_1" intLanes=":J3_0_0 :J3_0_1 :J3_2_0 :J3_2_1" shape="50.00,6.40 50.00,-6.40 50.00,6.40">
        <request index="0" response="0000" foes="0000" cont="0"/>
        <request index="1" response="0000" foes="0000" cont="0"/>
        <request index="2" response="0000" foes="0000" cont="0"/>
        <request index="3" response="0000" foes="0000" cont="0"/>
    </junction>
    <junction id="J4" type="dead_end" x="0.00" y="200.00" incLanes="-E2_0 -E2_1" intLanes="" shape="0.10,200.00 6.50,200.00 0.10,200.00"/>
    <junction id="J5" type="priority" x="0.00" y="-100.00" incLanes="E3_0 E3_1 -E7_0 -E7_1" intLanes=":J5_0_0 :J5_0_1 :J5_2_0 :J5_2_1" shape="-6.40,-100.00 6.40,-100.00 -6.40,-100.00">
        <request index="0" response="0000" foes="0000" cont="0"/>
        <request index="1" response="0000" foes="0000" cont="0"/>
        <request index="2" response="0000" foes="0000" cont="0"/>
        <request index="3" response="0000" foes="0000" cont="0"/>
    </junction>
    <junction id="J7" type="priority" x="150.00" y="0.00" incLanes="-E6_0 -E6_1 E5_0 E5_1" intLanes=":J7_0_0 :J7_0_1 :J7_2_0 :J7_2_1" shape="150.00,6.40 150.00,-6.40 150.00,6.40">
        <request index="0" response="0000" foes="0000" cont="0"/>
        <request index="1" response="0000" foes="0000" cont="0"/>
        <request index="2" response="0000" foes="0000" cont="0"/>
        <request index="3" response="0000" foes="0000" cont="0"/>
    </junction>
    <junction id="J8" type="dead_end" x="250.00" y="0.00" incLanes="E6_0 E6_1" intLanes="" shape="250.00,0.00 250.00,-6.40 250.00,0.00"/>
    <junction id="J9" type="dead_end" x="0.00" y="-200.00" incLanes="E7_0 E7_1" intLanes="" shape="0.00,-200.00 -6.40,-200.00 0.00,-200.00"/>

    <junction id=":J2_16_0" type="internal" x="-0.89" y="5.43" incLanes=":J2_3_0 -E3_0 -E3_1" intLanes=":J2_5_0 :J2_5_1 :J2_7_0 :J2_8_0 :J2_9_0 :J2_9_1 :J2_13_0 :J2_13_1 :J2_15_0"/>
    <junction id=":J2_17_0" type="internal" x="5.44" y="0.89" incLanes=":J2_7_0 E0_0 E0_1" intLanes=":J2_1_0 :J2_1_1 :J2_3_0 :J2_9_0 :J2_9_1 :J2_11_0 :J2_12_0 :J2_13_0 :J2_13_1"/>
    <junction id=":J2_18_0" type="internal" x="0.89" y="-5.45" incLanes=":J2_11_0 E2_0 E2_1" intLanes=":J2_0_0 :J2_1_0 :J2_1_1 :J2_5_0 :J2_5_1 :J2_7_0 :J2_13_0 :J2_13_1 :J2_15_0"/>
    <junction id=":J2_19_0" type="internal" x="-5.44" y="-0.89" incLanes=":J2_15_0 -E1_0 -E1_1" intLanes=":J2_1_0 :J2_1_1 :J2_3_0 :J2_4_0 :J2_5_0 :J2_5_1 :J2_9_0 :J2_9_1 :J2_11_0"/>

    <connection from="-E1" to="-E2" fromLane="0" toLane="0" via=":J2_4_0" tl="J2" linkIndex="4" dir="r" state="O"/>
    <connection from="-E1" to="-E0" fromLane="0" toLane="0" via=":J2_5_0" tl="J2" linkIndex="5" dir="s" state="O"/>
    <connection from="-E1" to="-E0" fromLane="1" toLane="1" via=":J2_5_1" tl="J2" linkIndex="6" dir="s" state="O"/>
    <connection from="-E1" to="E3" fromLane="1" toLane="1" via=":J2_7_0" tl="J2" linkIndex="7" dir="l" state="o"/>
    <connection from="-E3" to="E1" fromLane="0" toLane="0" via=":J2_8_0" tl="J2" linkIndex="8" dir="r" state="o"/>
    <connection from="-E3" to="-E2" fromLane="0" toLane="0" via=":J2_9_0" tl="J2" linkIndex="9" dir="s" state="o"/>
    <connection from="-E3" to="-E2" fromLane="1" toLane="1" via=":J2_9_1" tl="J2" linkIndex="10" dir="s" state="o"/>
    <connection from="-E3" to="-E0" fromLane="1" toLane="1" via=":J2_11_0" tl="J2" linkIndex="11" dir="l" state="o"/>
    <connection from="-E5" to="-E1" fromLane="0" toLane="0" via=":J3_0_0" dir="s" state="M"/>
    <connection from="-E5" to="-E1" fromLane="1" toLane="1" via=":J3_0_1" dir="s" state="M"/>
    <connection from="-E6" to="-E5" fromLane="0" toLane="0" via=":J7_0_0" dir="s" state="M"/>
    <connection from="-E6" to="-E5" fromLane="1" toLane="1" via=":J7_0_1" dir="s" state="M"/>
    <connection from="-E7" to="-E3" fromLane="0" toLane="0" via=":J5_2_0" dir="s" state="M"/>
    <connection from="-E7" to="-E3" fromLane="1" toLane="1" via=":J5_2_1" dir="s" state="M"/>
    <connection from="E0" to="E3" fromLane="0" toLane="0" via=":J2_12_0" tl="J2" linkIndex="12" dir="r" state="O"/>
    <connection from="E0" to="E1" fromLane="0" toLane="0" via=":J2_13_0" tl="J2" linkIndex="13" dir="s" state="O"/>
    <connection from="E0" to="E1" fromLane="1" toLane="1" via=":J2_13_1" tl="J2" linkIndex="14" dir="s" state="O"/>
    <connection from="E0" to="-E2" fromLane="1" toLane="1" via=":J2_15_0" tl="J2" linkIndex="15" dir="l" state="o"/>
    <connection from="E1" to="E5" fromLane="0" toLane="0" via=":J3_2_0" dir="s" state="M"/>
    <connection from="E1" to="E5" fromLane="1" toLane="1" via=":J3_2_1" dir="s" state="M"/>
    <connection from="E2" to="-E0" fromLane="0" toLane="0" via=":J2_0_0" tl="J2" linkIndex="0" dir="r" state="o"/>
    <connection from="E2" to="E3" fromLane="0" toLane="0" via=":J2_1_0" tl="J2" linkIndex="1" dir="s" state="o"/>
    <connection from="E2" to="E3" fromLane="1" toLane="1" via=":J2_1_1" tl="J2" linkIndex="2" dir="s" state="o"/>
    <connection from="E2" to="E1" fromLane="1" toLane="1" via=":J2_3_0" tl="J2" linkIndex="3" dir="l" state="o"/>
    <connection from="E3" to="E7" fromLane="0" toLane="0" via=":J5_0_0" dir="s" state="M"/>
    <connection from="E3" to="E7" fromLane="1" toLane="1" via=":J5_0_1" dir="s" state="M"/>
    <connection from="E5" to="E6" fromLane="0" toLane="0" via=":J7_2_0" dir="s" state="M"/>
    <connection from="E5" to="E6" fromLane="1" toLane="1" via=":J7_2_1" dir="s" state="M"/>

    <connection from=":J2_0" to="-E0" fromLane="0" toLane="0" dir="r" state="M"/>
    <connection from=":J2_1" to="E3" fromLane="0" toLane="0" dir="s" state="M"/>
    <connection from=":J2_1" to="E3" fromLane="1" toLane="1" dir="s" state="M"/>
    <connection from=":J2_3" to="E1" fromLane="0" toLane="1" via=":J2_16_0" dir="l" state="m"/>
    <connection from=":J2_16" to="E1" fromLane="0" toLane="1" dir="l" state="M"/>
    <connection from=":J2_4" to="-E2" fromLane="0" toLane="0" dir="r" state="M"/>
    <connection from=":J2_5" to="-E0" fromLane="0" toLane="0" dir="s" state="M"/>
    <connection from=":J2_5" to="-E0" fromLane="1" toLane="1" dir="s" state="M"/>
    <connection from=":J2_7" to="E3" fromLane="0" toLane="1" via=":J2_17_0" dir="l" state="m"/>
    <connection from=":J2_17" to="E3" fromLane="0" toLane="1" dir="l" state="M"/>
    <connection from=":J2_8" to="E1" fromLane="0" toLane="0" dir="r" state="M"/>
    <connection from=":J2_9" to="-E2" fromLane="0" toLane="0" dir="s" state="M"/>
    <connection from=":J2_9" to="-E2" fromLane="1" toLane="1" dir="s" state="M"/>
    <connection from=":J2_11" to="-E0" fromLane="0" toLane="1" via=":J2_18_0" dir="l" state="m"/>
    <connection from=":J2_18" to="-E0" fromLane="0" toLane="1" dir="l" state="M"/>
    <connection from=":J2_12" to="E3" fromLane="0" toLane="0" dir="r" state="M"/>
    <connection from=":J2_13" to="E1" fromLane="0" toLane="0" dir="s" state="M"/>
    <connection from=":J2_13" to="E1" fromLane="1" toLane="1" dir="s" state="M"/>
    <connection from=":J2_15" to="-E2" fromLane="0" toLane="1" via=":J2_19_0" dir="l" state="m"/>
    <connection from=":J2_19" to="-E2" fromLane="0" toLane="1" dir="l" state="M"/>
    <connection from=":J3_0" to="-E1" fromLane="0" toLane="0" dir="s" state="M"/>
    <connection from=":J3_0" to="-E1" fromLane="1" toLane="1" dir="s" state="M"/>
    <connection from=":J3_2" to="E5" fromLane="0" toLane="0" dir="s" state="M"/>
    <connection from=":J3_2" to="E5" fromLane="1" toLane="1" dir="s" state="M"/>
    <connection from=":J5_0" to="E7" fromLane="0" toLane="0" dir="s" state="M"/>
    <connection from=":J5_0" to="E7" fromLane="1" toLane="1" dir="s" state="M"/>
    <connection from=":J5_2" to="-E3" fromLane="0" toLane="0" dir="s" state="M"/>
    <connection from=":J5_2" to="-E3" fromLane="1" toLane="1" dir="s" state="M"/>
    <connection from=":J7_0" to="-E5" fromLane="0" toLane="0" dir="s" state="M"/>
    <connection from=":J7_0" to="-E5" fromLane="1" toLane="1" dir="s" state="M"/>
    <connection from=":J7_2" to="E6" fromLane="0" toLane="0" dir="s" state="M"/>
    <connection from=":J7_2" to="E6" fromLane="1" toLane="1" dir="s" state="M"/>

</net>
