<?xml version="1.0" encoding="UTF-8"?>

<!-- generated on 2023-09-27 19:08:32 by Eclipse SUMO netedit Version 1.18.0
-->

<routes xmlns:xsi="http://www.w3.org/2001/XMLSchema-instance" xsi:noNamespaceSchemaLocation="http://sumo.dlr.de/xsd/routes_file.xsd">
    <!-- VTypes -->
    <vType id="ego_veh" guiShape="passenger" color="red" jmIgnoreFoeProb="0.5" jmIgnoreFoeSpeed = "60.0" carFollowModel="EIDM" tau="0.05" tpreview="2.00" sigmaerror="0.5" jerkmax="5.00"/>
    <!-- Routes -->
    <route id="r_0" edges="-E3 -E0"/>
    <route id="r_1" edges="E2 E3"/>
    <!-- Vehicles, persons and containers (sorted by depart) -->
    <trip id="t_0" depart="0.00" from="E0" to="E1"/>
    <trip id="t_1" depart="0.00" departLane="1" from="E0" to="-E2"/>
    <trip id="t_2" depart="0.00" departLane="1" from="-E1" to="-E0"/>
    <trip id="t_3" depart="0.00" departLane="2" from="-E1" to="-E2"/>
    <vehicle id="v_0" type="ego_veh" depart="0.00" departLane="1" route="r_0"/>
    <vehicle id="v_1" type="DEFAULT_CONTAINERTYPE" depart="2.75" departLane="2" departEdge="0" arrivalLane="2" route="r_1"/>
</routes>
