<?xml version="1.0" encoding="UTF-8"?>

<!-- generated on 2023-12-13 19:39:38 by Eclipse SUMO GUI Version 1.18.0
<configuration xmlns:xsi="http://www.w3.org/2001/XMLSchema-instance" xsi:noNamespaceSchemaLocation="http://sumo.dlr.de/xsd/sumoConfiguration.xsd">

    <input>
        <net-file value="Highway_route.net.xml"/>
        <route-files value="Highway.rou.xml"/>
    </input>

    <output>
        <fcd-output value="fcd-output.xml"/>
        <fcd-output.geo value="true"/>
        <amitran-output value="trajectory"/>
        <collision-output value="collision-output"/>
        <statistic-output value="statistic-output"/>
    </output>

    <time>
        <begin value="0"/>
        <end value="1000"/>
    </time>

    <processing>
        <collision.action value="remove"/>
        <max-num-vehicles value="40"/>
    </processing>

</configuration>
-->

<trajectories xmlns:xsi="http://www.w3.org/2001/XMLSchema-instance" xsi:noNamespaceSchemaLocation="http://sumo.dlr.de/xsd/amitran/trajectories.xsd" timeStepSize="1000">
    <actorConfig id="15" vehicleClass="Passenger" fuel="Gasoline" emissionClass="Euro4" ref="Aggressivejunctiondriver"/>
    <vehicle id="0" actorConfig="15" startTime="0" ref="f_0.0"/>
    <motionState vehicle="0" speed="0" time="0" acceleration="0"/>
    <vehicle id="1" actorConfig="15" startTime="0" ref="f_1.0"/>
    <motionState vehicle="1" speed="0" time="0" acceleration="0"/>
    <actorConfig id="12" vehicleClass="Passenger" fuel="Gasoline" emissionClass="Euro4" ref="HumanLikeDriver"/>
    <vehicle id="2" actorConfig="12" startTime="0" ref="f_2.0"/>
    <motionState vehicle="2" speed="0" time="0" acceleration="0"/>
    <actorConfig id="18" vehicleClass="Passenger" fuel="Gasoline" emissionClass="Euro4" ref="ElderlyDriver"/>
    <vehicle id="3" actorConfig="18" startTime="0" ref="f_3.0"/>
    <motionState vehicle="3" speed="0" time="0" acceleration="0"/>
    <actorConfig id="7" vehicleClass="Passenger" fuel="Gasoline" emissionClass="Euro4" ref="AggressiveDriver"/>
    <vehicle id="4" actorConfig="7" startTime="0" ref="f_4.0"/>
    <motionState vehicle="4" speed="0" time="0" acceleration="0"/>
    <vehicle id="5" actorConfig="12" startTime="0" ref="f_5.0"/>
    <motionState vehicle="5" speed="0" time="0" acceleration="0"/>
    <motionState vehicle="0" speed="92" time="1000" acceleration="916"/>
    <actorConfig id="11" vehicleClass="Passenger" fuel="Gasoline" emissionClass="Euro4" ref="DefensiveDriver"/>
    <vehicle id="6" actorConfig="11" startTime="1000" ref="f_0.1"/>
    <motionState vehicle="6" speed="0" time="1000" acceleration="0"/>
    <motionState vehicle="1" speed="92" time="1000" acceleration="916"/>
    <actorConfig id="8" vehicleClass="Passenger" fuel="Gasoline" emissionClass="Euro4" ref="CautiousDriver"/>
    <vehicle id="7" actorConfig="8" startTime="1000" ref="f_1.1"/>
    <motionState vehicle="7" speed="0" time="1000" acceleration="0"/>
    <motionState vehicle="2" speed="92" time="1000" acceleration="916"/>
    <motionState vehicle="3" speed="55" time="1000" acceleration="549"/>
    <motionState vehicle="4" speed="200" time="1000" acceleration="2002"/>
    <motionState vehicle="5" speed="92" time="1000" acceleration="916"/>
    <motionState vehicle="0" speed="291" time="2000" acceleration="1989"/>
    <motionState vehicle="6" speed="69" time="2000" acceleration="686"/>
    <motionState vehicle="1" speed="290" time="2000" acceleration="1989"/>
    <motionState vehicle="7" speed="46" time="2000" acceleration="457"/>
    <actorConfig id="21" vehicleClass="Passenger" fuel="Gasoline" emissionClass="Euro4" ref="Motorcycle"/>
    <vehicle id="8" actorConfig="21" startTime="2000" ref="f_1.2"/>
    <motionState vehicle="8" speed="0" time="2000" acceleration="0"/>
    <motionState vehicle="2" speed="291" time="2000" acceleration="1990"/>
    <motionState vehicle="3" speed="174" time="2000" acceleration="1194"/>
    <vehicle id="9" actorConfig="8" startTime="2000" ref="f_3.1"/>
    <motionState vehicle="9" speed="0" time="2000" acceleration="0"/>
    <motionState vehicle="4" speed="694" time="2000" acceleration="4935"/>
    <actorConfig id="17" vehicleClass="Passenger" fuel="Gasoline" emissionClass="Euro4" ref="DeliveryTruck"/>
    <vehicle id="10" actorConfig="17" startTime="2000" ref="f_4.1"/>
    <motionState vehicle="10" speed="0" time="2000" acceleration="0"/>
    <motionState vehicle="5" speed="291" time="2000" acceleration="1990"/>
    <motionState vehicle="0" speed="490" time="3000" acceleration="1995"/>
    <motionState vehicle="6" speed="218" time="3000" acceleration="1490"/>
    <vehicle id="11" actorConfig="8" startTime="3000" ref="f_0.2"/>
    <motionState vehicle="11" speed="0" time="3000" acceleration="0"/>
    <actorConfig id="20" vehicleClass="Passenger" fuel="Gasoline" emissionClass="Euro4" ref="SchoolBus"/>
    <vehicle id="12" actorConfig="20" startTime="3000" ref="f_0.3"/>
    <motionState vehicle="12" speed="0" time="3000" acceleration="0"/>
    <motionState vehicle="1" speed="489" time="3000" acceleration="1983"/>
    <motionState vehicle="7" speed="145" time="3000" acceleration="994"/>
    <motionState vehicle="8" speed="46" time="3000" acceleration="460"/>
    <vehicle id="13" actorConfig="11" startTime="3000" ref="f_1.3"/>
    <motionState vehicle="13" speed="0" time="3000" acceleration="0"/>
    <motionState vehicle="2" speed="490" time="3000" acceleration="1997"/>
    <motionState vehicle="3" speed="294" time="3000" acceleration="1200"/>
    <motionState vehicle="9" speed="45" time="3000" acceleration="448"/>
    <vehicle id="14" actorConfig="20" startTime="3000" ref="f_3.2"/>
    <motionState vehicle="14" speed="0" time="3000" acceleration="0"/>
    <motionState vehicle="4" speed="1064" time="3000" acceleration="3705"/>
    <motionState vehicle="10" speed="60" time="3000" acceleration="596"/>
    <vehicle id="15" actorConfig="8" startTime="3000" ref="f_4.2"/>
    <motionState vehicle="15" speed="0" time="3000" acceleration="0"/>
    <motionState vehicle="5" speed="490" time="3000" acceleration="1998"/>
    <actorConfig id="13" vehicleClass="Passenger" fuel="Gasoline" emissionClass="Euro4" ref="AggressiveLanechangingdriver"/>
    <vehicle id="16" actorConfig="13" startTime="3000" ref="f_5.1"/>
    <motionState vehicle="16" speed="0" time="3000" acceleration="0"/>
    <vehicle id="17" actorConfig="7" startTime="3000" ref="f_5.2"/>
    <motionState vehicle="17" speed="0" time="3000" acceleration="0"/>
    <motionState vehicle="0" speed="669" time="4000" acceleration="1791"/>
    <motionState vehicle="6" speed="366" time="4000" acceleration="1483"/>
    <motionState vehicle="11" speed="40" time="4000" acceleration="400"/>
    <motionState vehicle="12" speed="58" time="4000" acceleration="582"/>
    <vehicle id="18" actorConfig="8" startTime="4000" ref="f_0.4"/>
    <motionState vehicle="18" speed="0" time="4000" acceleration="0"/>
    <motionState vehicle="1" speed="692" time="4000" acceleration="2030"/>
    <motionState vehicle="7" speed="240" time="4000" acceleration="953"/>
    <motionState vehicle="8" speed="345" time="4000" acceleration="2992"/>
    <motionState vehicle="13" speed="69" time="4000" acceleration="686"/>
    <motionState vehicle="2" speed="683" time="4000" acceleration="1928"/>
    <motionState vehicle="3" speed="388" time="4000" acceleration="933"/>
    <motionState vehicle="9" speed="143" time="4000" acceleration="979"/>
    <motionState vehicle="14" speed="69" time="4000" acceleration="687"/>
    <motionState vehicle="4" speed="1166" time="4000" acceleration="1016"/>
    <motionState vehicle="10" speed="189" time="4000" acceleration="1295"/>
    <motionState vehicle="15" speed="24" time="4000" acceleration="238"/>
    <motionState vehicle="5" speed="601" time="4000" acceleration="1103"/>
    <motionState vehicle="16" speed="87" time="4000" acceleration="869"/>
    <motionState vehicle="17" speed="229" time="4000" acceleration="2288"/>
    <motionState vehicle="0" speed="852" time="5000" acceleration="1832"/>
    <motionState vehicle="6" speed="513" time="5000" acceleration="1475"/>
    <motionState vehicle="11" speed="136" time="5000" acceleration="960"/>
    <motionState vehicle="12" speed="201" time="5000" acceleration="1431"/>
    <motionState vehicle="18" speed="45" time="5000" acceleration="447"/>
    <actorConfig id="10" vehicleClass="Passenger" fuel="Gasoline" emissionClass="Euro4" ref="RecklessDriver"/>
    <vehicle id="19" actorConfig="10" startTime="5000" ref="f_0.5"/>
    <motionState vehicle="19" speed="0" time="5000" acceleration="0"/>
    <motionState vehicle="1" speed="860" time="5000" acceleration="1680"/>
    <motionState vehicle="7" speed="331" time="5000" acceleration="908"/>
    <motionState vehicle="8" speed="236" time="5000" acceleration="-1090"/>
    <motionState vehicle="13" speed="218" time="5000" acceleration="1490"/>
    <motionState vehicle="2" speed="874" time="5000" acceleration="1910"/>
    <motionState vehicle="3" speed="436" time="5000" acceleration="483"/>
    <motionState vehicle="9" speed="241" time="5000" acceleration="987"/>
    <motionState vehicle="14" speed="218" time="5000" acceleration="1492"/>
    <actorConfig id="9" vehicleClass="Passenger" fuel="Gasoline" emissionClass="Euro4" ref="EcoFriendlyDriver"/>
    <vehicle id="20" actorConfig="9" startTime="5000" ref="f_3.3"/>
    <motionState vehicle="20" speed="0" time="5000" acceleration="0"/>
    <motionState vehicle="4" speed="843" time="5000" acceleration="-3230"/>
    <motionState vehicle="10" speed="438" time="5000" acceleration="2493"/>
    <motionState vehicle="15" speed="76" time="5000" acceleration="518"/>
    <motionState vehicle="5" speed="686" time="5000" acceleration="849"/>
    <motionState vehicle="16" speed="281" time="5000" acceleration="1942"/>
    <motionState vehicle="17" speed="723" time="5000" acceleration="4947"/>
    <vehicle id="21" actorConfig="11" startTime="5000" ref="f_5.3"/>
    <motionState vehicle="21" speed="0" time="5000" acceleration="0"/>
    <motionState vehicle="0" speed="1038" time="6000" acceleration="1861"/>
    <motionState vehicle="6" speed="640" time="6000" acceleration="1268"/>
    <motionState vehicle="11" speed="235" time="6000" acceleration="985"/>
    <motionState vehicle="12" speed="349" time="6000" acceleration="1473"/>
    <motionState vehicle="18" speed="143" time="6000" acceleration="981"/>
    <motionState vehicle="19" speed="138" time="6000" acceleration="1377"/>
    <motionState vehicle="1" speed="983" time="6000" acceleration="1230"/>
    <motionState vehicle="7" speed="422" time="6000" acceleration="904"/>
    <motionState vehicle="8" speed="427" time="6000" acceleration="1909"/>
    <motionState vehicle="13" speed="367" time="6000" acceleration="1497"/>
    <vehicle id="22" actorConfig="8" startTime="6000" ref="f_1.4"/>
    <motionState vehicle="22" speed="0" time="6000" acceleration="0"/>
    <vehicle id="23" actorConfig="7" startTime="6000" ref="f_1.5"/>
    <motionState vehicle="23" speed="0" time="6000" acceleration="0"/>
    <vehicle id="24" actorConfig="10" startTime="6000" ref="f_1.6"/>
    <motionState vehicle="24" speed="0" time="6000" acceleration="0"/>
    <motionState vehicle="2" speed="1063" time="6000" acceleration="1887"/>
    <motionState vehicle="3" speed="467" time="6000" acceleration="310"/>
    <motionState vehicle="9" speed="340" time="6000" acceleration="988"/>
    <motionState vehicle="14" speed="310" time="6000" acceleration="925"/>
    <motionState vehicle="20" speed="87" time="6000" acceleration="871"/>
    <motionState vehicle="4" speed="877" time="6000" acceleration="338"/>
    <motionState vehicle="10" speed="686" time="6000" acceleration="2473"/>
    <motionState vehicle="15" speed="128" time="6000" acceleration="521"/>
    <vehicle id="25" actorConfig="10" startTime="6000" ref="f_4.3"/>
    <motionState vehicle="25" speed="0" time="6000" acceleration="0"/>
    <vehicle id="26" actorConfig="11" startTime="6000" ref="f_4.4"/>
    <motionState vehicle="26" speed="0" time="6000" acceleration="0"/>
    <vehicle id="27" actorConfig="13" startTime="6000" ref="f_4.5"/>
    <motionState vehicle="27" speed="0" time="6000" acceleration="0"/>
    <motionState vehicle="5" speed="874" time="6000" acceleration="1890"/>
    <motionState vehicle="16" speed="478" time="6000" acceleration="1967"/>
    <motionState vehicle="17" speed="1204" time="6000" acceleration="4803"/>
    <motionState vehicle="21" speed="69" time="6000" acceleration="687"/>
    <motionState vehicle="0" speed="1244" time="7000" acceleration="2059"/>
    <motionState vehicle="6" speed="773" time="7000" acceleration="1325"/>
    <motionState vehicle="11" speed="334" time="7000" acceleration="992"/>
    <motionState vehicle="12" speed="504" time="7000" acceleration="1557"/>
    <motionState vehicle="18" speed="242" time="7000" acceleration="989"/>
    <motionState vehicle="19" speed="531" time="7000" acceleration="3937"/>
    <motionState vehicle="1" speed="1113" time="7000" acceleration="1308"/>
    <motionState vehicle="7" speed="516" time="7000" acceleration="943"/>
    <motionState vehicle="8" speed="521" time="7000" acceleration="940"/>
    <motionState vehicle="13" speed="497" time="7000" acceleration="1299"/>
    <motionState vehicle="22" speed="45" time="7000" acceleration="450"/>
    <motionState vehicle="23" speed="175" time="7000" acceleration="1751"/>
    <motionState vehicle="24" speed="179" time="7000" acceleration="1791"/>
    <actorConfig id="19" vehicleClass="Passenger" fuel="Gasoline" emissionClass="Euro4" ref="SportsCarDriver"/>
    <vehicle id="28" actorConfig="19" startTime="7000" ref="f_1.7"/>
    <motionState vehicle="28" speed="0" time="7000" acceleration="0"/>
    <motionState vehicle="2" speed="1252" time="7000" acceleration="1891"/>
    <motionState vehicle="3" speed="462" time="7000" acceleration="-51"/>
    <motionState vehicle="9" speed="440" time="7000" acceleration="997"/>
    <motionState vehicle="14" speed="337" time="7000" acceleration="265"/>
    <motionState vehicle="20" speed="281" time="7000" acceleration="1939"/>
    <motionState vehicle="4" speed="1015" time="7000" acceleration="1388"/>
    <motionState vehicle="10" speed="934" time="7000" acceleration="2478"/>
    <motionState vehicle="15" speed="161" time="7000" acceleration="329"/>
    <motionState vehicle="25" speed="95" time="7000" acceleration="954"/>
    <motionState vehicle="26" speed="36" time="7000" acceleration="358"/>
    <motionState vehicle="27" speed="48" time="7000" acceleration="477"/>
    <motionState vehicle="5" speed="1080" time="7000" acceleration="2056"/>
    <motionState vehicle="16" speed="691" time="7000" acceleration="2132"/>
    <motionState vehicle="17" speed="1622" time="7000" acceleration="4180"/>
    <motionState vehicle="21" speed="218" time="7000" acceleration="1492"/>
    <motionState vehicle="0" speed="1426" time="8000" acceleration="1812"/>
    <motionState vehicle="6" speed="893" time="8000" acceleration="1199"/>
    <motionState vehicle="11" speed="426" time="8000" acceleration="923"/>
    <motionState vehicle="12" speed="653" time="8000" acceleration="1482"/>
    <motionState vehicle="18" speed="341" time="8000" acceleration="991"/>
    <motionState vehicle="19" speed="863" time="8000" acceleration="3312"/>
    <motionState vehicle="1" speed="1267" time="8000" acceleration="1532"/>
    <motionState vehicle="7" speed="381" time="8000" acceleration="-1351"/>
    <motionState vehicle="8" speed="619" time="8000" acceleration="982"/>
    <motionState vehicle="13" speed="586" time="8000" acceleration="892"/>
    <motionState vehicle="22" speed="143" time="8000" acceleration="981"/>
    <motionState vehicle="23" speed="530" time="8000" acceleration="3551"/>
    <motionState vehicle="24" speed="572" time="8000" acceleration="3930"/>
    <motionState vehicle="28" speed="151" time="8000" acceleration="1513"/>
    <motionState vehicle="2" speed="1141" time="8000" acceleration="-1108"/>
    <motionState vehicle="3" speed="419" time="8000" acceleration="-421"/>
    <motionState vehicle="9" speed="542" time="8000" acceleration="1018"/>
    <motionState vehicle="14" speed="377" time="8000" acceleration="401"/>
    <motionState vehicle="20" speed="477" time="8000" acceleration="1964"/>
    <motionState vehicle="4" speed="1191" time="8000" acceleration="1754"/>
    <motionState vehicle="10" speed="1144" time="8000" acceleration="2102"/>
    <motionState vehicle="15" speed="146" time="8000" acceleration="-142"/>
    <motionState vehicle="25" speed="443" time="8000" acceleration="3480"/>
    <motionState vehicle="26" speed="113" time="8000" acceleration="777"/>
    <motionState vehicle="27" speed="151" time="8000" acceleration="1036"/>
    <motionState vehicle="5" speed="1279" time="8000" acceleration="1986"/>
    <motionState vehicle="16" speed="893" time="8000" acceleration="2016"/>
    <motionState vehicle="17" speed="1791" time="8000" acceleration="1694"/>
    <motionState vehicle="21" speed="368" time="8000" acceleration="1500"/>
    <motionState vehicle="0" speed="1585" time="9000" acceleration="1597"/>
    <motionState vehicle="6" speed="985" time="9000" acceleration="920"/>
    <motionState vehicle="11" speed="525" time="9000" acceleration="992"/>
    <motionState vehicle="12" speed="780" time="9000" acceleration="1278"/>
    <motionState vehicle="18" speed="451" time="9000" acceleration="1103"/>
    <motionState vehicle="19" speed="1175" time="9000" acceleration="3126"/>
    <motionState vehicle="1" speed="1420" time="9000" acceleration="1532"/>
    <motionState vehicle="7" speed="366" time="9000" acceleration="-145"/>
    <motionState vehicle="8" speed="0" time="9000" acceleration="-6191"/>
    <motionState vehicle="13" speed="617" time="9000" acceleration="308"/>
    <motionState vehicle="22" speed="242" time="9000" acceleration="991"/>
    <motionState vehicle="23" speed="827" time="9000" acceleration="2969"/>
    <motionState vehicle="24" speed="966" time="9000" acceleration="3934"/>
    <motionState vehicle="28" speed="600" time="9000" acceleration="4490"/>
    <motionState vehicle="2" speed="1148" time="9000" acceleration="67"/>
    <motionState vehicle="3" speed="422" time="9000" acceleration="26"/>
    <motionState vehicle="9" speed="635" time="9000" acceleration="935"/>
    <motionState vehicle="14" speed="446" time="9000" acceleration="694"/>
    <motionState vehicle="20" speed="666" time="9000" acceleration="1883"/>
    <motionState vehicle="4" speed="1376" time="9000" acceleration="1848"/>
    <motionState vehicle="10" speed="1392" time="9000" acceleration="2487"/>
    <motionState vehicle="15" speed="162" time="9000" acceleration="154"/>
    <motionState vehicle="25" speed="838" time="9000" acceleration="3943"/>
    <motionState vehicle="26" speed="192" time="9000" acceleration="781"/>
    <motionState vehicle="27" speed="255" time="9000" acceleration="1041"/>
    <vehicle id="29" actorConfig="20" startTime="9000" ref="f_4.6"/>
    <motionState vehicle="29" speed="0" time="9000" acceleration="0"/>
    <vehicle id="30" actorConfig="7" startTime="9000" ref="f_4.7"/>
    <motionState vehicle="30" speed="0" time="9000" acceleration="0"/>
    <motionState vehicle="5" speed="1462" time="9000" acceleration="1829"/>
    <motionState vehicle="16" speed="1071" time="9000" acceleration="1786"/>
    <motionState vehicle="17" speed="1802" time="9000" acceleration="106"/>
    <motionState vehicle="21" speed="520" time="9000" acceleration="1517"/>
    <motionState vehicle="0" speed="1738" time="10000" acceleration="1524"/>
    <motionState vehicle="6" speed="1052" time="10000" acceleration="671"/>
    <motionState vehicle="11" speed="608" time="10000" acceleration="825"/>
    <motionState vehicle="12" speed="942" time="10000" acceleration="1612"/>
    <motionState vehicle="18" speed="561" time="10000" acceleration="1099"/>
    <motionState vehicle="19" speed="1249" time="10000" acceleration="739"/>
    <vehicle id="31" actorConfig="21" startTime="10000" ref="f_0.6"/>
    <motionState vehicle="31" speed="0" time="10000" acceleration="0"/>
    <motionState vehicle="1" speed="1273" time="10000" acceleration="-1467"/>
    <motionState vehicle="7" speed="463" time="10000" acceleration="968"/>
    <motionState vehicle="8" speed="243" time="10000" acceleration="2428"/>
    <motionState vehicle="13" speed="595" time="10000" acceleration="-221"/>
    <motionState vehicle="22" speed="341" time="10000" acceleration="993"/>
    <motionState vehicle="23" speed="1165" time="10000" acceleration="3381"/>
    <motionState vehicle="24" speed="1262" time="10000" acceleration="2964"/>
    <motionState vehicle="28" speed="973" time="10000" acceleration="3727"/>
    <motionState vehicle="2" speed="1307" time="10000" acceleration="1594"/>
    <motionState vehicle="3" speed="538" time="10000" acceleration="1160"/>
    <motionState vehicle="9" speed="710" time="10000" acceleration="753"/>
    <motionState vehicle="14" speed="545" time="10000" acceleration="986"/>
    <motionState vehicle="20" speed="833" time="10000" acceleration="1670"/>
    <motionState vehicle="4" speed="1589" time="10000" acceleration="2129"/>
    <motionState vehicle="10" speed="1662" time="10000" acceleration="2694"/>
    <motionState vehicle="15" speed="201" time="10000" acceleration="389"/>
    <motionState vehicle="25" speed="1188" time="10000" acceleration="3503"/>
    <motionState vehicle="26" speed="270" time="10000" acceleration="781"/>
    <motionState vehicle="27" speed="446" time="10000" acceleration="1906"/>
    <motionState vehicle="29" speed="36" time="10000" acceleration="358"/>
    <motionState vehicle="30" speed="0" time="10000" acceleration="0"/>
    <motionState vehicle="5" speed="1633" time="10000" acceleration="1715"/>
    <motionState vehicle="16" speed="1149" time="10000" acceleration="781"/>
    <motionState vehicle="17" speed="1977" time="10000" acceleration="1757"/>
    <motionState vehicle="21" speed="665" time="10000" acceleration="1454"/>
    <motionState vehicle="0" speed="1888" time="11000" acceleration="1506"/>
    <motionState vehicle="6" speed="1092" time="11000" acceleration="409"/>
    <motionState vehicle="11" speed="698" time="11000" acceleration="903"/>
    <motionState vehicle="12" speed="1104" time="11000" acceleration="1626"/>
    <motionState vehicle="18" speed="671" time="11000" acceleration="1103"/>
    <motionState vehicle="19" speed="1023" time="11000" acceleration="-2260"/>
    <motionState vehicle="31" speed="315" time="11000" acceleration="3155"/>
    <motionState vehicle="1" speed="1367" time="11000" acceleration="937"/>
    <motionState vehicle="7" speed="565" time="11000" acceleration="1024"/>
    <motionState vehicle="8" speed="783" time="11000" acceleration="5400"/>
    <motionState vehicle="13" speed="585" time="11000" acceleration="-101"/>
    <motionState vehicle="22" speed="452" time="11000" acceleration="1108"/>
    <motionState vehicle="23" speed="1402" time="11000" acceleration="2366"/>
    <motionState vehicle="24" speed="1567" time="11000" acceleration="3048"/>
    <motionState vehicle="28" speed="629" time="11000" acceleration="-3435"/>
    <vehicle id="32" actorConfig="10" startTime="11000" ref="f_1.8"/>
    <motionState vehicle="32" speed="0" time="11000" acceleration="0"/>
    <actorConfig id="16" vehicleClass="Passenger" fuel="Gasoline" emissionClass="Euro4" ref="InexperiencedDriver"/>
    <vehicle id="33" actorConfig="16" startTime="11000" ref="f_1.9"/>
    <motionState vehicle="33" speed="0" time="11000" acceleration="0"/>
    <motionState vehicle="2" speed="1477" time="11000" acceleration="1703"/>
    <motionState vehicle="3" speed="665" time="11000" acceleration="1273"/>
    <motionState vehicle="9" speed="783" time="11000" acceleration="721"/>
    <motionState vehicle="14" speed="656" time="11000" acceleration="1107"/>
    <motionState vehicle="20" speed="1012" time="11000" acceleration="1796"/>
    <vehicle id="34" actorConfig="18" startTime="11000" ref="f_3.4"/>
    <motionState vehicle="34" speed="0" time="11000" acceleration="0"/>
    <motionState vehicle="4" speed="1858" time="11000" acceleration="2695"/>
    <motionState vehicle="10" speed="1923" time="11000" acceleration="2607"/>
    <motionState vehicle="15" speed="253" time="11000" acceleration="520"/>
    <motionState vehicle="25" speed="1442" time="11000" acceleration="2543"/>
    <motionState vehicle="26" speed="410" time="11000" acceleration="1408"/>
    <motionState vehicle="27" speed="601" time="11000" acceleration="1554"/>
    <motionState vehicle="29" speed="113" time="11000" acceleration="777"/>
    <motionState vehicle="30" speed="200" time="11000" acceleration="2002"/>
    <vehicle id="35" actorConfig="10" startTime="11000" ref="f_4.8"/>
    <motionState vehicle="35" speed="0" time="11000" acceleration="0"/>
    <motionState vehicle="5" speed="1760" time="11000" acceleration="1271"/>
    <motionState vehicle="16" speed="1122" time="11000" acceleration="-275"/>
    <motionState vehicle="17" speed="2135" time="11000" acceleration="1578"/>
    <motionState vehicle="21" speed="716" time="11000" acceleration="507"/>
    <vehicle id="36" actorConfig="10" startTime="11000" ref="f_5.4"/>
    <motionState vehicle="36" speed="0" time="11000" acceleration="0"/>
    <motionState vehicle="0" speed="2020" time="12000" acceleration="1314"/>
    <motionState vehicle="6" speed="1102" time="12000" acceleration="92"/>
    <motionState vehicle="11" speed="790" time="12000" acceleration="924"/>
    <motionState vehicle="12" speed="1104" time="12000" acceleration="0"/>
    <motionState vehicle="18" speed="768" time="12000" acceleration="963"/>
    <motionState vehicle="19" speed="953" time="12000" acceleration="-701"/>
    <motionState vehicle="31" speed="928" time="12000" acceleration="6123"/>
    <vehicle id="37" actorConfig="21" startTime="12000" ref="f_0.7"/>
    <motionState vehicle="37" speed="0" time="12000" acceleration="0"/>
    <vehicle id="38" actorConfig="10" startTime="12000" ref="f_0.8"/>
    <motionState vehicle="38" speed="0" time="12000" acceleration="0"/>
    <motionState vehicle="1" speed="1496" time="12000" acceleration="1298"/>
    <motionState vehicle="7" speed="656" time="12000" acceleration="910"/>
    <motionState vehicle="8" speed="702" time="12000" acceleration="-809"/>
    <motionState vehicle="13" speed="597" time="12000" acceleration="118"/>
    <motionState vehicle="22" speed="530" time="12000" acceleration="774"/>
    <motionState vehicle="23" speed="1639" time="12000" acceleration="2378"/>
    <motionState vehicle="24" speed="1845" time="12000" acceleration="2781"/>
    <motionState vehicle="28" speed="638" time="12000" acceleration="89"/>
    <motionState vehicle="32" speed="183" time="12000" acceleration="1831"/>
    <motionState vehicle="33" speed="45" time="12000" acceleration="454"/>
    <motionState vehicle="2" speed="1672" time="12000" acceleration="1944"/>
    <vehicle id="39" actorConfig="10" startTime="12000" ref="f_2.1"/>
    <motionState vehicle="39" speed="0" time="12000" acceleration="0"/>
    <motionState vehicle="3" speed="784" time="12000" acceleration="1184"/>
    <motionState vehicle="9" speed="856" time="12000" acceleration="734"/>
    <motionState vehicle="14" speed="759" time="12000" acceleration="1030"/>
    <motionState vehicle="20" speed="1188" time="12000" acceleration="1754"/>
    <motionState vehicle="34" speed="52" time="12000" acceleration="525"/>
    <motionState vehicle="4" speed="2111" time="12000" acceleration="2531"/>
    <motionState vehicle="10" speed="2143" time="12000" acceleration="2205"/>
    <motionState vehicle="15" speed="335" time="12000" acceleration="821"/>
    <motionState vehicle="25" speed="1645" time="12000" acceleration="2031"/>
    <motionState vehicle="26" speed="548" time="12000" acceleration="1380"/>
    <motionState vehicle="27" speed="697" time="12000" acceleration="958"/>
    <motionState vehicle="29" speed="192" time="12000" acceleration="781"/>
    <motionState vehicle="30" speed="693" time="12000" acceleration="4932"/>
    <motionState vehicle="35" speed="95" time="12000" acceleration="954"/>
    <motionState vehicle="5" speed="1873" time="12000" acceleration="1133"/>
    <motionState vehicle="16" speed="1059" time="12000" acceleration="-627"/>
    <motionState vehicle="17" speed="2023" time="12000" acceleration="-1125"/>
    <motionState vehicle="21" speed="837" time="12000" acceleration="1214"/>
    <motionState vehicle="36" speed="178" time="12000" acceleration="1777"/>
    <motionState vehicle="0" speed="2124" time="13000" acceleration="1039"/>
    <motionState vehicle="6" speed="1106" time="13000" acceleration="43"/>
    <motionState vehicle="11" speed="888" time="13000" acceleration="978"/>
    <motionState vehicle="12" speed="1249" time="13000" acceleration="1450"/>
    <motionState vehicle="18" speed="866" time="13000" acceleration="983"/>
    <motionState vehicle="19" speed="956" time="13000" acceleration="29"/>
    <motionState vehicle="31" speed="1056" time="13000" acceleration="1284"/>
    <motionState vehicle="37" speed="319" time="13000" acceleration="3193"/>
    <motionState vehicle="38" speed="178" time="13000" acceleration="1777"/>
    <motionState vehicle="1" speed="1639" time="13000" acceleration="1421"/>
    <motionState vehicle="7" speed="734" time="13000" acceleration="777"/>
    <motionState vehicle="8" speed="816" time="13000" acceleration="1138"/>
    <motionState vehicle="13" speed="621" time="13000" acceleration="246"/>
    <motionState vehicle="22" speed="597" time="13000" acceleration="669"/>
    <motionState vehicle="23" speed="1913" time="13000" acceleration="2733"/>
    <motionState vehicle="24" speed="2105" time="13000" acceleration="2603"/>
    <motionState vehicle="28" speed="620" time="13000" acceleration="-187"/>
    <motionState vehicle="32" speed="580" time="13000" acceleration="3971"/>