<?xml version="1.0" encoding="UTF-8"?>

<!-- generated on 2023-09-27 20:08:06 by Eclipse SUMO netedit Version 1.18.0
-->

<routes xmlns:xsi="http://www.w3.org/2001/XMLSchema-instance" xsi:noNamespaceSchemaLocation="http://sumo.dlr.de/xsd/routes_file.xsd">
    <!-- VTypes -->
    <vType id="t_0" guiShape="passenger" color="red" jmIgnoreFoeSpeed="60" 
    jmIgnoreFoeProb="0.7" jmSigmaMinor="0.0" jmTimegapMinor="1" carFollowModel="EIDM" decel="6" emergencyDecel="8" 
    tau="0.05" tpreview="2.00" sigmaerror="0.5" jerkmax="5.00"/>
    <!-- Routes -->
    <route id="r_0" edges="E5 E4"/>
    <route id="r_1" edges="-E4 E6"/>
    <route id="r_2" edges="-E6 -E5"/>
    <route id="r_3" edges="E3 E4"/>
    <route id="r_4" edges="-E6 -E3"/>
    <route id="r_5" edges="-E6 E4"/>
    <route id="r_6" edges="E3 E6"/>
    <!-- Vehicles, persons and containers (sorted by depart) -->
    <vehicle id="v_1" type="t_0" depart="0.00" route="r_1"/>
    <vehicle id="v_0" depart="0.20" route="r_0"/>
    <flow id="f_0" begin="5.00" route="r_2" end="25.00" vehsPerHour="360.00"/>
    <flow id="f_1" begin="5.00" route="r_3" end="25.00" vehsPerHour="360.00"/>
    <flow id="f_2" begin="7.00" route="r_4" end="27.00" vehsPerHour="360.00"/>
    <flow id="f_3" begin="7.00" route="r_6" end="27.00" vehsPerHour="360.00"/>
</routes>
