<?xml version="1.0" encoding="UTF-8"?>

<!-- generated on 2023-09-27 20:11:52 by Eclipse SUMO netedit Version 1.18.0
<configuration xmlns:xsi="http://www.w3.org/2001/XMLSchema-instance" xsi:noNamespaceSchemaLocation="http://sumo.dlr.de/xsd/neteditConfiguration.xsd">

    <input>
        <sumocfg-file value="C:\Users\vinay\Desktop\ECE_699\sumo_road\INTERSECTION_FINAL\scenario_3\scene3.sumocfg"/>
        <route-files value="C:\Users\vinay\Desktop\ECE_699\sumo_road\INTERSECTION_FINAL\scenario_3\scene3.rou.xml"/>
        <sumo-net-file value="C:\Users\vinay\Desktop\ECE_699\sumo_road\INTERSECTION_FINAL\scenario_3\scene3.net.xml"/>
    </input>

    <output>
        <output-file value="C:\Users\vinay\Desktop\ECE_699\sumo_road\INTERSECTION_FINAL\scenario_3\scene3.net.xml"/>
    </output>

    <processing>
        <geometry.min-radius.fix.railways value="false"/>
        <geometry.max-grade.fix value="false"/>
        <offset.disable-normalization value="true"/>
        <lefthand value="0"/>
    </processing>

    <junctions>
        <no-turnarounds value="true"/>
        <junctions.corner-detail value="5"/>
        <junctions.limit-turn-speed value="5.50"/>
        <rectangular-lane-cut value="0"/>
    </junctions>

    <pedestrian>
        <walkingareas value="0"/>
    </pedestrian>

</configuration>
-->

<net version="1.16" junctionCornerDetail="5" limitTurnSpeed="5.50" xmlns:xsi="http://www.w3.org/2001/XMLSchema-instance" xsi:noNamespaceSchemaLocation="http://sumo.dlr.de/xsd/net_file.xsd">

    <location netOffset="0.00,0.00" convBoundary="0.00,0.00,200.00,200.00" origBoundary="-10000000000.00,-10000000000.00,10000000000.00,10000000000.00" projParameter="!"/>

    <edge id=":J5_0" function="internal">
        <lane id=":J5_0_0" index="0" speed="6.51" length="9.03" shape="98.40,107.20 98.05,104.75 97.00,103.00 95.25,101.95 92.80,101.60"/>
    </edge>
    <edge id=":J5_1" function="internal">
        <lane id=":J5_1_0" index="0" speed="13.89" length="14.40" shape="98.40,107.20 98.40,92.80"/>
    </edge>
    <edge id=":J5_2" function="internal">
        <lane id=":J5_2_0" index="0" speed="8.00" length="14.19" shape="98.40,107.20 98.95,103.35 100.60,100.60 103.35,98.95 107.20,98.40"/>
    </edge>
    <edge id=":J5_3" function="internal">
        <lane id=":J5_3_0" index="0" speed="6.51" length="9.03" shape="107.20,101.60 104.75,101.95 103.00,103.00 101.95,104.75 101.60,107.20"/>
    </edge>
    <edge id=":J5_4" function="internal">
        <lane id=":J5_4_0" index="0" speed="13.89" length="14.40" shape="107.20,101.60 92.80,101.60"/>
    </edge>
    <edge id=":J5_5" function="internal">
        <lane id=":J5_5_0" index="0" speed="8.00" length="14.19" shape="107.20,101.60 103.35,101.05 100.60,99.40 98.95,96.65 98.40,92.80"/>
    </edge>
    <edge id=":J5_6" function="internal">
        <lane id=":J5_6_0" index="0" speed="6.51" length="9.03" shape="101.60,92.80 101.95,95.25 103.00,97.00 104.75,98.05 107.20,98.40"/>
    </edge>
    <edge id=":J5_7" function="internal">
        <lane id=":J5_7_0" index="0" speed="13.89" length="14.40" shape="101.60,92.80 101.60,107.20"/>
    </edge>
    <edge id=":J5_8" function="internal">
        <lane id=":J5_8_0" index="0" speed="8.00" length="14.19" shape="101.60,92.80 101.05,96.65 99.40,99.40 96.65,101.05 92.80,101.60"/>
    </edge>
    <edge id=":J5_9" function="internal">
        <lane id=":J5_9_0" index="0" speed="6.51" length="9.03" shape="92.80,98.40 95.25,98.05 97.00,97.00 98.05,95.25 98.40,92.80"/>
    </edge>
    <edge id=":J5_10" function="internal">
        <lane id=":J5_10_0" index="0" speed="13.89" length="14.40" shape="92.80,98.40 107.20,98.40"/>
    </edge>
    <edge id=":J5_11" function="internal">
        <lane id=":J5_11_0" index="0" speed="8.00" length="14.19" shape="92.80,98.40 96.65,98.95 99.40,100.60 101.05,103.35 101.60,107.20"/>
    </edge>

    <edge id="-E3" from="J5" to="J4" priority="-1">
        <lane id="-E3_0" index="0" speed="13.89" length="92.80" shape="92.80,101.60 0.00,101.60"/>
    </edge>
    <edge id="-E4" from="J6" to="J5" priority="-1">
        <lane id="-E4_0" index="0" speed="13.89" length="92.80" shape="200.00,101.60 107.20,101.60"/>
    </edge>
    <edge id="-E5" from="J5" to="J7" priority="-1">
        <lane id="-E5_0" index="0" speed="13.89" length="92.80" shape="101.60,107.20 101.60,200.00"/>
    </edge>
    <edge id="-E6" from="J8" to="J5" priority="-1">
        <lane id="-E6_0" index="0" speed="13.89" length="92.80" shape="101.60,0.00 101.60,92.80"/>
    </edge>
    <edge id="E3" from="J4" to="J5" priority="-1">
        <lane id="E3_0" index="0" speed="13.89" length="92.80" shape="0.00,98.40 92.80,98.40"/>
    </edge>
    <edge id="E4" from="J5" to="J6" priority="-1">
        <lane id="E4_0" index="0" speed="13.89" length="92.80" shape="107.20,98.40 200.00,98.40"/>
    </edge>
    <edge id="E5" from="J7" to="J5" priority="-1">
        <lane id="E5_0" index="0" speed="13.89" length="92.80" shape="98.40,200.00 98.40,107.20"/>
    </edge>
    <edge id="E6" from="J5" to="J8" priority="-1">
        <lane id="E6_0" index="0" speed="13.89" length="92.80" shape="98.40,92.80 98.40,0.00"/>
    </edge>

    <junction id="J4" type="dead_end" x="0.00" y="100.00" incLanes="-E3_0" intLanes="" shape="0.00,100.00 0.00,103.20 0.00,100.00"/>
    <junction id="J5" type="right_before_left" x="100.00" y="100.00" incLanes="E5_0 -E4_0 -E6_0 E3_0" intLanes=":J5_0_0 :J5_1_0 :J5_2_0 :J5_3_0 :J5_4_0 :J5_5_0 :J5_6_0 :J5_7_0 :J5_8_0 :J5_9_0 :J5_10_0 :J5_11_0" shape="96.80,107.20 103.20,107.20 103.64,104.98 104.20,104.20 104.98,103.64 105.98,103.31 107.20,103.20 107.20,96.80 104.98,96.36 104.20,95.80 103.64,95.02 103.31,94.02 103.20,92.80 96.80,92.80 96.36,95.02 95.80,95.80 95.02,96.36 94.02,96.69 92.80,96.80 92.80,103.20 95.02,103.64 95.80,104.20 96.36,104.98 96.69,105.98">
        <request index="0"  response="000000000000" foes="000100010000" cont="0"/>
        <request index="1"  response="111000000000" foes="111100110000" cont="0"/>
        <request index="2"  response="110011000000" foes="110111110000" cont="0"/>
        <request index="3"  response="000000000000" foes="100010000000" cont="0"/>
        <request index="4"  response="000000000111" foes="100110000111" cont="0"/>
        <request index="5"  response="111000000110" foes="111110000110" cont="0"/>
        <request index="6"  response="000000000000" foes="010000000100" cont="0"/>
        <request index="7"  response="000000111000" foes="110000111100" cont="0"/>
        <request index="8"  response="000000110111" foes="110000110111" cont="0"/>
        <request index="9"  response="000000000000" foes="000000100010" cont="0"/>
        <request index="10" response="000111000000" foes="000111100110" cont="0"/>
        <request index="11" response="000110011000" foes="000110111110" cont="0"/>
    </junction>
    <junction id="J6" type="dead_end" x="200.00" y="100.00" incLanes="E4_0" intLanes="" shape="200.00,100.00 200.00,96.80 200.00,100.00"/>
    <junction id="J7" type="dead_end" x="100.00" y="200.00" incLanes="-E5_0" intLanes="" shape="100.00,200.00 103.20,200.00 100.00,200.00"/>
    <junction id="J8" type="dead_end" x="100.00" y="0.00" incLanes="E6_0" intLanes="" shape="100.00,0.00 96.80,0.00 100.00,0.00"/>

    <connection from="-E4" to="-E5" fromLane="0" toLane="0" via=":J5_3_0" dir="r" state="M"/>
    <connection from="-E4" to="-E3" fromLane="0" toLane="0" via=":J5_4_0" dir="s" state="="/>
    <connection from="-E4" to="E6" fromLane="0" toLane="0" via=":J5_5_0" dir="l" state="="/>
    <connection from="-E6" to="E4" fromLane="0" toLane="0" via=":J5_6_0" dir="r" state="M"/>
    <connection from="-E6" to="-E5" fromLane="0" toLane="0" via=":J5_7_0" dir="s" state="="/>
    <connection from="-E6" to="-E3" fromLane="0" toLane="0" via=":J5_8_0" dir="l" state="="/>
    <connection from="E3" to="E6" fromLane="0" toLane="0" via=":J5_9_0" dir="r" state="M"/>
    <connection from="E3" to="E4" fromLane="0" toLane="0" via=":J5_10_0" dir="s" state="="/>
    <connection from="E3" to="-E5" fromLane="0" toLane="0" via=":J5_11_0" dir="l" state="="/>
    <connection from="E5" to="-E3" fromLane="0" toLane="0" via=":J5_0_0" dir="r" state="M"/>
    <connection from="E5" to="E6" fromLane="0" toLane="0" via=":J5_1_0" dir="s" state="="/>
    <connection from="E5" to="E4" fromLane="0" toLane="0" via=":J5_2_0" dir="l" state="="/>

    <connection from=":J5_0" to="-E3" fromLane="0" toLane="0" dir="r" state="M"/>
    <connection from=":J5_1" to="E6" fromLane="0" toLane="0" dir="s" state="M"/>
    <connection from=":J5_2" to="E4" fromLane="0" toLane="0" dir="l" state="M"/>
    <connection from=":J5_3" to="-E5" fromLane="0" toLane="0" dir="r" state="M"/>
    <connection from=":J5_4" to="-E3" fromLane="0" toLane="0" dir="s" state="M"/>
    <connection from=":J5_5" to="E6" fromLane="0" toLane="0" dir="l" state="M"/>
    <connection from=":J5_6" to="E4" fromLane="0" toLane="0" dir="r" state="M"/>
    <connection from=":J5_7" to="-E5" fromLane="0" toLane="0" dir="s" state="M"/>
    <connection from=":J5_8" to="-E3" fromLane="0" toLane="0" dir="l" state="M"/>
    <connection from=":J5_9" to="E6" fromLane="0" toLane="0" dir="r" state="M"/>
    <connection from=":J5_10" to="E4" fromLane="0" toLane="0" dir="s" state="M"/>
    <connection from=":J5_11" to="-E5" fromLane="0" toLane="0" dir="l" state="M"/>

</net>
