<?xml version="1.0" encoding="UTF-8"?>

<!-- generated on 2023-09-27 00:41:30 by Eclipse SUMO netedit Version 1.18.0
-->

<routes xmlns:xsi="http://www.w3.org/2001/XMLSchema-instance" xsi:noNamespaceSchemaLocation="http://sumo.dlr.de/xsd/routes_file.xsd">
    <!-- VTypes -->
    <vType id="t_0" guiShape="passenger" color="red" carFollowModel="EIDM" decel="6" emergencyDecel="8" collisionMinGapFactor="0.5" tau="0.05" sigmaerror="0.5" jerkmax="5.00"/>
    <!-- Routes -->
    <route id="r_0" edges="E0 E1"/>
    <route id="r_1" edges="-E3 -E2"/>
    <!-- Vehicles, persons and containers (sorted by depart) -->
    <flow id="f_0" begin="0.00" departLane="2" arrivalLane="2" route="r_1" end="20.00" vehsPerHour="720.00"/>
    <flow id="v_0" begin="0.00" departLane="1" departPos="10.00" arrivalLane="2" route="r_0" end="10.00" vehsPerHour="720.00"/>
    <flow id="v_1" type="t_0" begin="0.00" departLane="0" departPos="30.00" arrivalLane="2" route="r_0" end="10.00" vehsPerHour="720.00"/>
    <flow id="v_2" begin="0.00" departLane="2" departPos="0.00" arrivalLane="2" route="r_0" end="20.00" vehsPerHour="720.00"/>
</routes>
