<?xml version="1.0" encoding="UTF-8"?>

<!-- generated on 2023-12-14 00:11:56 by Eclipse SUMO netconvert Version 1.18.0
<configuration xmlns:xsi="http://www.w3.org/2001/XMLSchema-instance" xsi:noNamespaceSchemaLocation="http://sumo.dlr.de/xsd/netconvertConfiguration.xsd">

    <input>
        <type-files value="/usr/local/Cellar/sumo/1.18.0/share/sumo/tools/../data/typemap/osmNetconvert.typ.xml"/>
        <osm-files value="osm_bbox.osm.xml.gz"/>
    </input>

    <output>
        <output-file value="osm.net.xml.gz"/>
        <output.street-names value="true"/>
        <output.original-names value="true"/>
    </output>

    <projection>
        <proj.utm value="true"/>
    </projection>

    <processing>
        <geometry.remove value="true"/>
        <roundabouts.guess value="true"/>
    </processing>

    <tls_building>
        <tls.discard-simple value="true"/>
        <tls.join value="true"/>
        <tls.guess-signals value="true"/>
        <tls.default-type value="actuated"/>
    </tls_building>

    <ramp_guessing>
        <ramps.guess value="true"/>
    </ramp_guessing>

    <junctions>
        <junctions.join value="true"/>
        <junctions.corner-detail value="5"/>
    </junctions>

</configuration>
-->

<net version="1.16" junctionCornerDetail="5" limitTurnSpeed="5.50" xmlns:xsi="http://www.w3.org/2001/XMLSchema-instance" xsi:noNamespaceSchemaLocation="http://sumo.dlr.de/xsd/net_file.xsd">

    <location netOffset="-536474.80,-4819889.00" convBoundary="0.00,0.00,459.39,1484.92" origBoundary="-80.548502,43.531032,-80.542874,43.544419" projParameter="+proj=utm +zone=17 +ellps=WGS84 +datum=WGS84 +units=m +no_defs"/>

    <type id="highway.secondary" priority="11" numLanes="1" speed="27.78" disallow="tram rail_urban rail rail_electric rail_fast ship" oneway="0"/>

    <edge id=":1605900284_0" function="internal">
        <lane id=":1605900284_0_0" index="0" disallow="tram rail_urban rail rail_electric rail_fast ship" speed="10.77" length="8.99" shape="128.44,1414.50 126.10,1415.45 124.82,1416.72 123.88,1418.45 122.51,1420.77"/>
        <lane id=":1605900284_0_1" index="1" disallow="tram rail_urban rail rail_electric rail_fast ship" speed="11.36" length="10.05" shape="128.44,1414.50 125.52,1415.17 123.43,1415.71 121.70,1416.76 119.86,1418.96"/>
    </edge>
    <edge id=":1605900284_2" function="internal">
        <lane id=":1605900284_2_0" index="0" disallow="tram rail_urban rail rail_electric rail_fast ship" speed="13.89" length="10.35" shape="128.44,1414.50 125.36,1415.40 123.16,1415.92 120.97,1415.90 117.91,1415.18"/>
        <lane id=":1605900284_2_1" index="1" disallow="tram rail_urban rail rail_electric rail_fast ship" speed="13.81" length="10.35" shape="127.60,1411.41 124.78,1412.21 122.76,1412.62 120.75,1412.54 117.94,1411.86"/>
    </edge>
    <edge id=":1605900306_0" function="internal">
        <lane id=":1605900306_0_0" index="0" disallow="tram rail_urban rail rail_electric rail_fast ship" speed="11.81" length="9.93" shape="142.66,1364.42 142.40,1367.08 142.15,1368.99 142.37,1370.76 143.55,1373.02"/>
        <lane id=":1605900306_0_1" index="1" disallow="tram rail_urban rail rail_electric rail_fast ship" speed="13.02" length="9.93" shape="139.47,1364.30 139.20,1367.56 139.00,1369.89 139.40,1372.05 140.89,1374.80"/>
    </edge>
    <edge id=":1605900306_2" function="internal">
        <lane id=":1605900306_2_0" index="0" disallow="tram rail_urban rail rail_electric rail_fast ship" speed="13.89" length="9.97" shape="135.67,1366.18 138.28,1367.91 140.11,1369.11 141.69,1370.55 143.55,1373.02"/>
        <lane id=":1605900306_2_1" index="1" disallow="tram rail_urban rail rail_electric rail_fast ship" speed="13.89" length="9.97" shape="133.81,1368.79 136.15,1370.32 137.80,1371.36 139.22,1372.61 140.89,1374.80"/>
    </edge>
    <edge id=":1605900310_0" function="internal">
        <lane id=":1605900310_0_0" index="0" disallow="tram rail_urban rail rail_electric rail_fast ship" speed="13.89" length="10.11" shape="110.11,1412.67 107.45,1411.02 105.63,1409.84 104.00,1408.46 101.88,1406.16"/>
        <lane id=":1605900310_0_1" index="1" disallow="tram rail_urban rail rail_electric rail_fast ship" speed="13.89" length="10.11" shape="111.85,1409.98 109.41,1408.47 107.74,1407.41 106.24,1406.16 104.30,1404.07"/>
    </edge>
    <edge id=":1605900310_2" function="internal">
        <lane id=":1605900310_2_0" index="0" disallow="tram rail_urban rail rail_electric rail_fast ship" speed="8.76" length="8.13" shape="102.62,1414.06 102.94,1411.36 102.93,1409.14 102.58,1407.41 101.88,1406.16"/>
        <lane id=":1605900310_2_1" index="1" disallow="tram rail_urban rail rail_electric rail_fast ship" speed="10.08" length="10.94" shape="105.77,1414.59 106.15,1411.16 106.03,1408.27 105.41,1405.90 104.30,1404.07"/>
    </edge>
    <edge id=":1605900344_0" function="internal">
        <lane id=":1605900344_0_0" index="0" disallow="tram rail_urban rail rail_electric rail_fast ship" speed="15.99" length="8.86" shape="118.50,1362.04 120.87,1361.03 122.28,1359.94 123.50,1358.54 125.29,1356.59"/>
        <lane id=":1605900344_0_1" index="1" disallow="tram rail_urban rail rail_electric rail_fast ship" speed="16.80" length="9.80" shape="118.50,1362.04 121.35,1361.37 123.45,1361.14 125.33,1360.57 127.54,1358.86"/>
    </edge>
    <edge id=":1605900344_2" function="internal">
        <lane id=":1605900344_2_0" index="0" disallow="tram rail_urban rail rail_electric rail_fast ship" speed="13.80" length="9.57" shape="118.50,1362.04 121.43,1361.32 123.54,1361.43 125.67,1362.07 128.67,1362.97"/>
        <lane id=":1605900344_2_1" index="1" disallow="tram rail_urban rail rail_electric rail_fast ship" speed="12.57" length="9.57" shape="119.53,1365.07 121.94,1364.52 123.67,1364.68 125.42,1365.29 127.89,1366.07"/>
    </edge>
    <edge id=":1605900377_0" function="internal">
        <lane id=":1605900377_0_0" index="0" disallow="tram rail_urban rail rail_electric rail_fast ship" speed="11.74" length="9.38" shape="97.28,1398.80 95.90,1396.53 94.41,1395.39 92.52,1394.62 89.96,1393.46"/>
        <lane id=":1605900377_0_1" index="1" disallow="tram rail_urban rail rail_electric rail_fast ship" speed="12.31" length="10.34" shape="97.28,1398.80 96.11,1395.94 95.25,1393.90 93.95,1392.28 91.48,1390.65"/>
    </edge>
    <edge id=":1605900377_2" function="internal">
        <lane id=":1605900377_2_0" index="0" disallow="tram rail_urban rail rail_electric rail_fast ship" speed="13.89" length="10.58" shape="97.28,1398.80 95.89,1395.83 95.09,1393.68 94.83,1391.44 95.11,1388.23"/>
        <lane id=":1605900377_2_1" index="1" disallow="tram rail_urban rail rail_electric rail_fast ship" speed="13.84" length="10.58" shape="100.19,1397.46 98.95,1394.74 98.28,1392.76 98.12,1390.71 98.39,1387.75"/>
    </edge>
    <edge id=":1605900457_0" function="internal">
        <lane id=":1605900457_0_0" index="0" disallow="tram rail_urban rail rail_electric rail_fast ship" speed="9.43" length="8.01" shape="93.83,1373.92 96.23,1374.06 97.98,1374.14 99.53,1373.71 101.31,1372.33"/>
        <lane id=":1605900457_0_1" index="1" disallow="tram rail_urban rail rail_electric rail_fast ship" speed="10.75" length="10.53" shape="93.81,1377.12 96.95,1377.23 99.22,1377.20 101.22,1376.50 103.55,1374.61"/>
    </edge>
    <edge id=":1605900457_2" function="internal">
        <lane id=":1605900457_2_0" index="0" disallow="tram rail_urban rail rail_electric rail_fast ship" speed="13.89" length="9.42" shape="96.27,1380.88 97.39,1378.11 98.20,1376.20 99.30,1374.49 101.31,1372.33"/>
        <lane id=":1605900457_2_1" index="1" disallow="tram rail_urban rail rail_electric rail_fast ship" speed="13.89" length="9.42" shape="99.20,1382.15 100.17,1379.71 100.86,1378.03 101.80,1376.52 103.55,1374.61"/>
    </edge>
    <edge id=":1605900463_0" function="internal">
        <lane id=":1605900463_0_0" index="0" disallow="tram rail_urban rail rail_electric rail_fast ship" speed="9.92" length="8.65" shape="147.60,1381.33 148.61,1383.54 149.89,1384.69 151.62,1385.48 153.97,1386.58"/>
        <lane id=":1605900463_0_1" index="1" disallow="tram rail_urban rail rail_electric rail_fast ship" speed="10.56" length="9.84" shape="147.60,1381.33 148.37,1384.17 149.00,1386.20 150.14,1387.82 152.44,1389.40"/>
    </edge>
    <edge id=":1605900463_2" function="internal">
        <lane id=":1605900463_2_0" index="0" disallow="tram rail_urban rail rail_electric rail_fast ship" speed="13.89" length="10.09" shape="147.60,1381.33 148.41,1384.31 148.69,1386.41 148.70,1388.56 148.69,1391.67"/>
        <lane id=":1605900463_2_1" index="1" disallow="tram rail_urban rail rail_electric rail_fast ship" speed="13.32" length="10.09" shape="144.55,1382.29 145.46,1385.03 145.99,1386.99 146.02,1388.96 145.44,1391.73"/>
    </edge>
    <edge id=":1605900486_0" function="internal">
        <lane id=":1605900486_0_0" index="0" disallow="tram rail_urban rail rail_electric rail_fast ship" speed="20.83" length="13.50" shape="148.86,1407.47 145.06,1408.25 142.39,1408.66 139.84,1409.38 136.41,1411.09"/>
        <lane id=":1605900486_0_1" index="1" disallow="tram rail_urban rail rail_electric rail_fast ship" speed="20.83" length="13.50" shape="148.08,1404.37 144.02,1405.21 141.18,1405.68 138.48,1406.48 134.82,1408.31"/>
    </edge>
    <edge id=":1605900486_2" function="internal">
        <lane id=":1605900486_2_0" index="0" disallow="tram rail_urban rail rail_electric rail_fast ship" speed="13.89" length="13.88" shape="145.84,1400.73 143.71,1404.39 142.06,1406.85 139.94,1408.84 136.41,1411.09"/>
        <lane id=":1605900486_2_1" index="1" disallow="tram rail_urban rail rail_electric rail_fast ship" speed="13.89" length="13.88" shape="143.51,1398.39 141.53,1401.87 140.04,1404.24 138.11,1406.17 134.82,1408.31"/>
    </edge>
    <edge id=":1977405985_0" function="internal">
        <lane id=":1977405985_0_0" index="0" disallow="tram rail_urban rail rail_electric rail_fast ship" speed="25.00" length="16.58" shape="156.62,1329.98 154.67,1332.88 153.12,1335.96 151.61,1339.72 149.79,1344.65"/>
        <lane id=":1977405985_0_1" index="1" disallow="tram rail_urban rail rail_electric rail_fast ship" speed="25.00" length="16.58" shape="156.62,1329.98 154.21,1332.67 151.66,1335.30 149.12,1338.67 146.79,1343.55"/>
    </edge>
    <edge id=":1977405985_2" function="internal">
        <lane id=":1977405985_2_0" index="0" disallow="tram rail_urban rail rail_electric rail_fast ship" speed="25.00" length="15.90" shape="141.10,1336.91 144.71,1333.44 148.24,1331.61 151.44,1330.22 154.08,1328.03"/>
    </edge>
    <edge id=":519051342_0" function="internal">
        <lane id=":519051342_0_0" index="0" disallow="tram rail_urban rail rail_electric rail_fast ship" speed="3.65" length="4.67" shape="410.62,0.18 411.28,-1.10 412.03,-1.59 412.87,-1.28 413.80,-0.18"/>
    </edge>

    <edge id="-41919137" from="1977405985" to="519051342" name="Arthur Street South" priority="11" type="highway.secondary" shape="152.47,1332.77 186.96,1287.70 218.64,1243.15 283.87,1152.60 343.29,1048.84 403.00,892.29 434.55,773.70 452.78,669.71 459.39,537.79 457.07,424.87 451.13,350.90 412.21,0.00">
        <lane id="-41919137_0" index="0" disallow="tram rail_urban rail rail_electric rail_fast ship" speed="22.22" length="1404.75" shape="154.08,1328.03 185.67,1286.75 217.34,1242.22 282.52,1151.73 341.84,1048.15 401.48,891.80 432.99,773.36 451.18,669.53 457.79,537.77 455.47,424.95 449.54,351.06 410.62,0.18">
            <param key="origId" value="41919137"/>
        </lane>
        <param key="ref" value="85"/>
    </edge>
    <edge id="147379101" from="1605900377" to="1605900457" priority="11" type="highway.secondary" spreadType="center" shape="97.66,1395.79 96.63,1388.89 97.54,1381.97 100.31,1375.56">
        <lane id="147379101_0" index="0" disallow="tram rail_urban rail rail_electric rail_fast ship" speed="13.89" length="6.57" shape="95.11,1388.23 95.98,1381.54 96.27,1380.88">
            <param key="origId" value="147379101"/>
        </lane>
        <lane id="147379101_1" index="1" disallow="tram rail_urban rail rail_electric rail_fast ship" speed="13.89" length="6.57" shape="98.39,1387.75 99.09,1382.40 99.20,1382.15">
            <param key="origId" value="147379101"/>
        </lane>
    </edge>
    <edge id="186984718" from="1605900284" to="1605900361" name="Arthur Street South" priority="11" type="highway.secondary" spreadType="center" shape="125.44,1413.65 113.34,1431.33 89.28,1471.79 76.93,1487.30">
        <lane id="186984718_0" index="0" disallow="tram rail_urban rail rail_electric rail_fast ship" speed="27.78" length="80.27" shape="122.51,1420.77 114.69,1432.19 90.60,1472.70 78.50,1487.89">
            <param key="origId" value="186984718"/>
        </lane>
        <lane id="186984718_1" index="1" disallow="tram rail_urban rail rail_electric rail_fast ship" speed="27.78" length="80.27" shape="119.86,1418.96 111.99,1430.46 87.96,1470.88 76.00,1485.90">
            <param key="origId" value="186984718"/>
        </lane>
        <param key="ref" value="85"/>
    </edge>
    <edge id="186984719" from="1977405985" to="1605900306" name="Arthur Street South" priority="11" type="highway.secondary" spreadType="center" shape="152.47,1332.77 146.62,1348.63 141.28,1358.18 140.80,1371.80">
        <lane id="186984719_0" index="0" disallow="tram rail_urban rail rail_electric rail_fast ship" speed="27.78" length="21.95" shape="149.79,1344.65 148.08,1349.30 142.87,1358.62 142.66,1364.42">
            <param key="origId" value="186984719"/>
        </lane>
        <lane id="186984719_1" index="1" disallow="tram rail_urban rail rail_electric rail_fast ship" speed="27.78" length="21.95" shape="146.79,1343.55 145.16,1347.96 139.70,1357.73 139.47,1364.30">
            <param key="origId" value="186984719"/>
        </lane>
        <param key="ref" value="85"/>
    </edge>
    <edge id="186984720" from="1605900361" to="1605900310" name="Arthur Street South" priority="11" type="highway.secondary" spreadType="center" shape="71.86,1483.62 84.13,1463.98 101.20,1432.13 105.31,1407.68">
        <lane id="186984720_0" index="0" disallow="tram rail_urban rail rail_electric rail_fast ship" speed="27.78" length="76.91" shape="70.74,1482.40 82.75,1463.18 99.67,1431.60 102.62,1414.06">
            <param key="origId" value="186984720"/>
        </lane>
        <lane id="186984720_1" index="1" disallow="tram rail_urban rail rail_electric rail_fast ship" speed="27.78" length="76.91" shape="73.45,1484.09 85.52,1464.79 102.74,1432.65 105.77,1414.59">
            <param key="origId" value="186984720"/>
        </lane>
        <param key="ref" value="85"/>
    </edge>
    <edge id="186984721" from="1605900344" to="1977405985" name="Arthur Street South" priority="11" type="highway.secondary" spreadType="center" shape="121.33,1362.78 129.82,1354.35 142.45,1337.77 152.47,1332.77">
        <lane id="186984721_0" index="0" disallow="tram rail_urban rail rail_electric rail_fast ship" speed="27.78" length="24.76" shape="125.29,1356.59 128.61,1353.29 141.10,1336.91">
            <param key="origId" value="186984721"/>
        </lane>
        <lane id="186984721_1" index="1" disallow="tram rail_urban rail rail_electric rail_fast ship" speed="27.78" length="24.76" shape="127.54,1358.86 131.02,1355.41 142.74,1340.03">
            <param key="origId" value="186984721"/>
        </lane>
        <param key="ref" value="85"/>
    </edge>
    <edge id="186984746" from="1605900377" to="1605900417" name="Sawmill Road" priority="11" type="highway.secondary" spreadType="center" shape="97.66,1395.79 81.51,1387.10 65.94,1380.98 48.18,1380.88 32.12,1384.68 26.18,1388.13 13.94,1395.22 0.65,1401.23">
        <lane id="186984746_0" index="0" disallow="tram rail_urban rail rail_electric rail_fast ship" speed="13.89" length="96.35" shape="89.96,1393.46 80.84,1388.56 65.64,1382.58 48.36,1382.48 32.72,1386.18 26.98,1389.51 14.68,1396.65 1.95,1402.40">
            <param key="origId" value="186984746"/>
        </lane>
        <lane id="186984746_1" index="1" disallow="tram rail_urban rail rail_electric rail_fast ship" speed="13.89" length="96.35" shape="91.48,1390.65 82.19,1385.65 66.25,1379.38 48.00,1379.28 31.52,1383.18 25.38,1386.74 13.21,1393.80 0.63,1399.49">
            <param key="origId" value="186984746"/>
        </lane>
        <param key="ref" value="17"/>
    </edge>
    <edge id="186984747" from="1605900417" to="1605900457" priority="11" type="highway.secondary" spreadType="center" shape="-2.43,1396.02 16.57,1378.79 20.63,1377.13 39.14,1369.60 53.88,1368.15 66.28,1370.67 83.31,1375.45 100.31,1375.56">
        <lane id="186984747_0" index="0" disallow="tram rail_urban rail rail_electric rail_fast ship" speed="13.89" length="105.28" shape="-3.21,1394.56 15.70,1377.41 20.03,1375.65 38.75,1368.03 53.96,1366.54 66.66,1369.12 83.54,1373.85 93.83,1373.92">
            <param key="origId" value="186984747"/>
        </lane>
        <lane id="186984747_1" index="1" disallow="tram rail_urban rail rail_electric rail_fast ship" speed="13.89" length="105.28" shape="-1.06,1396.93 17.43,1380.16 21.24,1378.62 39.52,1371.17 53.80,1369.77 65.91,1372.23 83.09,1377.05 93.81,1377.12">
            <param key="origId" value="186984747"/>
        </lane>
        <param key="ref" value="17"/>
    </edge>
    <edge id="382673078" from="3858943981" to="1605900486" name="Sawmill Road" priority="11" type="highway.secondary" spreadType="center" shape="199.38,1410.26 166.04,1405.17 154.41,1404.43 137.30,1408.73">
        <lane id="382673078_0" index="0" disallow="tram rail_urban rail rail_electric rail_fast ship" speed="27.78" length="51.20" shape="198.84,1411.79 165.87,1406.76 154.56,1406.04 148.86,1407.47">
            <param key="origId" value="382673078"/>
        </lane>
        <lane id="382673078_1" index="1" disallow="tram rail_urban rail rail_electric rail_fast ship" speed="27.78" length="51.20" shape="199.32,1408.63 166.21,1403.58 154.26,1402.81 148.08,1404.37">
            <param key="origId" value="382673078"/>
        </lane>
        <param key="ref" value="17"/>
    </edge>
    <edge id="382673079" from="1605900463" to="3858943981" name="Sawmill Road" priority="11" type="highway.secondary" spreadType="center" shape="146.95,1384.58 155.86,1389.43 165.07,1394.59 178.04,1399.44 200.63,1404.05">
        <lane id="382673079_0" index="0" disallow="tram rail_urban rail rail_electric rail_fast ship" speed="27.78" length="50.03" shape="153.97,1386.58 156.63,1388.03 165.75,1393.13 178.49,1397.89 200.52,1402.39">
            <param key="origId" value="382673079"/>
        </lane>
        <lane id="382673079_1" index="1" disallow="tram rail_urban rail rail_electric rail_fast ship" speed="27.78" length="50.03" shape="152.44,1389.40 155.08,1390.83 164.40,1396.05 177.60,1400.98 199.88,1405.52">
            <param key="origId" value="382673079"/>
        </lane>
        <param key="ref" value="17"/>
    </edge>
    <edge id="41919137" from="519051342" to="1977405985" name="Arthur Street South" priority="11" type="highway.secondary" shape="412.21,0.00 451.13,350.90 457.07,424.87 459.39,537.79 452.78,669.71 434.55,773.70 403.00,892.29 343.29,1048.84 283.87,1152.60 218.64,1243.15 186.96,1287.70 152.47,1332.77">
        <lane id="41919137_0" index="0" disallow="tram rail_urban rail rail_electric rail_fast ship" speed="22.22" length="1407.20" shape="413.80,-0.18 452.73,350.75 458.67,424.79 460.99,537.81 454.37,669.88 436.11,774.05 404.53,892.78 344.74,1049.53 285.22,1153.47 219.95,1244.08 188.25,1288.65 156.62,1329.98">
            <param key="origId" value="41919137"/>
        </lane>
        <param key="ref" value="85"/>
    </edge>
    <edge id="467326070#0" from="1605900463" to="1605900486" priority="11" type="highway.secondary" spreadType="center" shape="146.95,1384.58 147.09,1391.74 145.21,1398.65 141.91,1404.19 137.30,1408.73">
        <lane id="467326070#0_0" index="0" disallow="tram rail_urban rail rail_electric rail_fast ship" speed="13.89" length="8.25" shape="148.69,1391.67 148.70,1391.94 146.70,1399.28 145.84,1400.73">
            <param key="origId" value="467326070"/>
        </lane>
        <lane id="467326070#0_1" index="1" disallow="tram rail_urban rail rail_electric rail_fast ship" speed="13.89" length="8.25" shape="145.44,1391.73 143.73,1398.02 143.51,1398.39">
            <param key="origId" value="467326070"/>
        </lane>
    </edge>
    <edge id="467326070#1" from="1605900486" to="1605900284" priority="11" type="highway.secondary" spreadType="center" shape="137.30,1408.73 131.69,1411.96 125.44,1413.65">
        <lane id="467326070#1_0" index="0" disallow="tram rail_urban rail rail_electric rail_fast ship" speed="13.89" length="8.33" shape="136.41,1411.09 132.31,1413.45 128.44,1414.50">
            <param key="origId" value="467326070"/>
        </lane>
        <lane id="467326070#1_1" index="1" disallow="tram rail_urban rail rail_electric rail_fast ship" speed="13.89" length="8.33" shape="134.82,1408.31 131.07,1410.47 127.60,1411.41">
            <param key="origId" value="467326070"/>
        </lane>
    </edge>
    <edge id="467326071" from="1605900310" to="1605900377" priority="11" type="highway.secondary" spreadType="center" shape="105.31,1407.68 100.63,1402.28 97.66,1395.79">
        <lane id="467326071_0" index="0" disallow="tram rail_urban rail rail_electric rail_fast ship" speed="13.89" length="8.32" shape="101.88,1406.16 99.27,1403.15 97.28,1398.80">
            <param key="origId" value="467326071"/>
        </lane>
        <lane id="467326071_1" index="1" disallow="tram rail_urban rail rail_electric rail_fast ship" speed="13.89" length="8.32" shape="104.30,1404.07 101.99,1401.41 100.19,1397.46">
            <param key="origId" value="467326071"/>
        </lane>
    </edge>
    <edge id="467326072" from="1605900284" to="1605900310" priority="11" type="highway.secondary" spreadType="center" shape="125.44,1413.65 118.25,1413.62 111.35,1411.57 105.31,1407.68">
        <lane id="467326072_0" index="0" disallow="tram rail_urban rail rail_electric rail_fast ship" speed="13.89" length="7.30" shape="117.91,1415.18 110.68,1413.04 110.11,1412.67">
            <param key="origId" value="467326072"/>
        </lane>
        <lane id="467326072_1" index="1" disallow="tram rail_urban rail rail_electric rail_fast ship" speed="13.89" length="7.30" shape="117.94,1411.86 112.02,1410.10 111.85,1409.98">
            <param key="origId" value="467326072"/>
        </lane>
    </edge>
    <edge id="467326073#0" from="1605900457" to="1605900344" priority="11" type="highway.secondary" spreadType="center" shape="100.31,1375.56 109.11,1366.91 121.33,1362.78">
        <lane id="467326073#0_0" index="0" disallow="tram rail_urban rail rail_electric rail_fast ship" speed="13.89" length="19.82" shape="101.31,1372.33 108.25,1365.51 118.50,1362.04">
            <param key="origId" value="467326073"/>
        </lane>
        <lane id="467326073#0_1" index="1" disallow="tram rail_urban rail rail_electric rail_fast ship" speed="13.89" length="19.82" shape="103.55,1374.61 109.97,1368.31 119.53,1365.07">
            <param key="origId" value="467326073"/>
        </lane>
    </edge>
    <edge id="467326073#1" from="1605900344" to="1605900306" priority="11" type="highway.secondary" spreadType="center" shape="121.33,1362.78 131.82,1365.41 140.80,1371.80">
        <lane id="467326073#1_0" index="0" disallow="tram rail_urban rail rail_electric rail_fast ship" speed="13.89" length="7.23" shape="128.67,1362.97 132.51,1363.93 135.67,1366.18">
            <param key="origId" value="467326073"/>
        </lane>
        <lane id="467326073#1_1" index="1" disallow="tram rail_urban rail rail_electric rail_fast ship" speed="13.89" length="7.23" shape="127.89,1366.07 131.14,1366.89 133.81,1368.79">
            <param key="origId" value="467326073"/>
        </lane>
    </edge>
    <edge id="467326073#2" from="1605900306" to="1605900463" priority="11" type="highway.secondary" spreadType="center" shape="140.80,1371.80 144.80,1377.75 146.95,1384.58">
        <lane id="467326073#2_0" index="0" disallow="tram rail_urban rail rail_electric rail_fast ship" speed="13.89" length="8.89" shape="143.55,1373.02 146.25,1377.05 147.60,1381.33">
            <param key="origId" value="467326073"/>
        </lane>
        <lane id="467326073#2_1" index="1" disallow="tram rail_urban rail rail_electric rail_fast ship" speed="13.89" length="8.89" shape="140.89,1374.80 143.34,1378.45 144.55,1382.29">
            <param key="origId" value="467326073"/>
        </lane>
    </edge>

    <junction id="1605900284" type="priority" x="125.44" y="1413.65" incLanes="467326070#1_0 467326070#1_1" intLanes=":1605900284_0_0 :1605900284_0_1 :1605900284_2_0 :1605900284_2_1" shape="128.86,1416.04 127.18,1409.86 123.79,1410.78 122.56,1410.97 121.33,1410.96 119.87,1410.71 117.96,1410.19 117.89,1416.81 118.63,1416.96 118.80,1417.13 118.85,1417.37 118.76,1417.68 118.54,1418.06 123.83,1421.67 125.27,1419.05 125.78,1418.06 126.41,1417.25 127.37,1416.59">
        <request index="0" response="0000" foes="0000" cont="0"/>
        <request index="1" response="0000" foes="0000" cont="0"/>
        <request index="2" response="0000" foes="0000" cont="0"/>
        <request index="3" response="0000" foes="0000" cont="0"/>
    </junction>
    <junction id="1605900306" type="priority" x="140.80" y="1371.80" incLanes="186984719_0 186984719_1 467326073#1_0 467326073#1_1" intLanes=":1605900306_0_0 :1605900306_0_1 :1605900306_2_0 :1605900306_2_1" shape="139.56,1375.69 144.87,1372.12 143.74,1369.58 143.72,1368.54 143.89,1367.45 144.11,1366.15 144.26,1364.47 137.87,1364.25 137.70,1364.98 137.52,1365.15 137.28,1365.19 136.97,1365.10 136.59,1364.88 132.88,1370.09 135.65,1371.86 136.64,1372.48 137.54,1373.19 138.47,1374.19">
        <request index="0" response="0100" foes="0100" cont="0"/>
        <request index="1" response="1100" foes="1100" cont="0"/>
        <request index="2" response="0000" foes="0011" cont="0"/>
        <request index="3" response="0000" foes="0010" cont="0"/>
    </junction>
    <junction id="1605900310" type="priority" x="105.31" y="1407.68" incLanes="467326072_0 467326072_1 186984720_0 186984720_1" intLanes=":1605900310_0_0 :1605900310_0_1 :1605900310_2_0 :1605900310_2_1" shape="109.25,1414.02 112.71,1408.63 109.56,1407.36 108.58,1406.63 107.73,1405.72 106.77,1404.54 105.51,1403.02 100.67,1407.21 101.26,1408.58 101.38,1409.57 101.38,1410.77 101.27,1412.18 101.04,1413.80 107.35,1414.86 107.70,1413.94 107.98,1413.72 108.33,1413.66 108.76,1413.76">
        <request index="0" response="0000" foes="1100" cont="0"/>
        <request index="1" response="0000" foes="1000" cont="0"/>
        <request index="2" response="0001" foes="0001" cont="0"/>
        <request index="3" response="0011" foes="0011" cont="0"/>
    </junction>
    <junction id="1605900344" type="priority" x="121.33" y="1362.78" incLanes="467326073#0_0 467326073#0_1" intLanes=":1605900344_0_0 :1605900344_0_1 :1605900344_2_0 :1605900344_2_1" shape="127.50,1367.63 129.06,1361.42 128.37,1361.10 128.23,1360.88 128.24,1360.62 128.38,1360.33 128.67,1360.00 124.16,1355.45 122.14,1357.74 121.43,1358.57 120.64,1359.27 119.56,1359.90 117.99,1360.53 120.04,1366.59 122.75,1366.12 123.74,1366.31 124.74,1366.68 125.93,1367.15">
        <request index="0" response="0000" foes="0000" cont="0"/>
        <request index="1" response="0000" foes="0000" cont="0"/>
        <request index="2" response="0000" foes="0000" cont="0"/>
        <request index="3" response="0000" foes="0000" cont="0"/>
    </junction>
    <junction id="1605900361" type="dead_end" x="74.78" y="1484.92" incLanes="186984718_0 186984718_1" intLanes="" shape="74.81,1484.94 69.38,1481.55 79.76,1488.89 74.75,1484.90"/>
    <junction id="1605900377" type="priority" x="97.66" y="1395.79" incLanes="467326071_0 467326071_1" intLanes=":1605900377_0_0 :1605900377_0_1 :1605900377_2_0 :1605900377_2_1" shape="95.82,1399.46 101.64,1396.80 100.80,1394.95 100.22,1393.53 99.88,1392.30 99.75,1391.05 99.81,1389.53 100.04,1387.52 93.46,1388.46 93.25,1389.14 93.07,1389.33 92.84,1389.40 92.56,1389.37 92.23,1389.24 89.20,1394.87 92.12,1396.10 93.22,1396.51 94.15,1397.07 95.00,1397.98">
        <request index="0" response="0000" foes="0000" cont="0"/>
        <request index="1" response="0000" foes="0000" cont="0"/>
        <request index="2" response="0000" foes="0000" cont="0"/>
        <request index="3" response="0000" foes="0000" cont="0"/>
    </junction>
    <junction id="1605900417" type="dead_end" x="0.00" y="1398.10" incLanes="186984746_0 186984746_1" intLanes="" shape="0.02,1398.12 -4.28,1393.38 2.60,1403.86 -0.03,1398.03"/>
    <junction id="1605900457" type="priority" x="100.31" y="1375.56" incLanes="186984747_0 186984747_1 147379101_0 147379101_1" intLanes=":1605900457_0_0 :1605900457_0_1 :1605900457_2_0 :1605900457_2_1" shape="104.67,1375.75 100.18,1371.19 98.23,1372.49 97.36,1372.61 96.41,1372.54 95.27,1372.40 93.84,1372.32 93.80,1378.72 94.64,1378.89 94.88,1379.10 94.98,1379.40 94.95,1379.78 94.80,1380.24 100.67,1382.78 101.28,1379.84 101.77,1378.85 102.46,1377.96 103.40,1376.99">
        <request index="0" response="0100" foes="0100" cont="0"/>
        <request index="1" response="1100" foes="1100" cont="0"/>
        <request index="2" response="0000" foes="0011" cont="0"/>
        <request index="3" response="0000" foes="0010" cont="0"/>
    </junction>
    <junction id="1605900463" type="priority" x="146.95" y="1384.58" incLanes="467326073#2_0 467326073#2_1" intLanes=":1605900463_0_0 :1605900463_0_1 :1605900463_2_0 :1605900463_2_1" shape="143.77,1391.76 150.29,1391.64 150.43,1390.83 150.62,1390.63 150.89,1390.55 151.25,1390.61 151.68,1390.80 154.74,1385.18 152.14,1384.06 151.16,1383.65 150.36,1383.10 149.70,1382.23 149.13,1380.85 143.02,1382.77 144.08,1386.05 144.35,1387.25 144.40,1388.45 144.22,1389.88">
        <request index="0" response="0000" foes="0000" cont="0"/>