<?xml version="1.0" encoding="UTF-8"?>

<!-- generated on 2023-11-28 11:44:10 by Eclipse SUMO GUI Version 1.18.0
<configuration xmlns:xsi="http://www.w3.org/2001/XMLSchema-instance" xsi:noNamespaceSchemaLocation="http://sumo.dlr.de/xsd/sumoConfiguration.xsd">

    <input>
        <net-file value="Highway_route.net.xml"/>
        <route-files value="Highway.rou.xml"/>
    </input>

    <output>
        <fcd-output value="fcd-output.xml"/>
        <fcd-output.acceleration value="true"/>
        <amitran-output value="trajectory"/>
        <collision-output value="collision-output"/>
        <statistic-output value="statistic-output"/>
    </output>

    <time>
        <begin value="0"/>
        <end value="1000"/>
        <step-length value="0.1"/>
    </time>

    <processing>
        <collision.action value="remove"/>
        <collision.stoptime value="2"/>
        <max-num-vehicles value="40"/>
    </processing>

    <random_number>
        <random value="true"/>
    </random_number>

</configuration>
-->

<statistics xmlns:xsi="http://www.w3.org/2001/XMLSchema-instance" xsi:noNamespaceSchemaLocation="http://sumo.dlr.de/xsd/statistic_file.xsd">
    <performance clockBegin="1164236.38" clockEnd="1164269.48" clockDuration="33.10" traciDuration="0.22" realTimeFactor="0.88" vehicleUpdatesPerSecond="312.40" personUpdatesPerSecond="0.00" begin="0.00" end="29.10" duration="29.10"/>
    <vehicles loaded="156" inserted="60" running="40" waiting="96"/>
    <teleports total="0" jam="0" yield="0" wrongLane="0"/>
    <safety collisions="1" emergencyStops="0" emergencyBraking="0"/>
    <persons loaded="0" running="0" jammed="0"/>
    <personTeleports total="0" abortWait="0" wrongDest="0"/>
</statistics>
