<?xml version="1.0" encoding="UTF-8"?>

<!-- generated on 2023-11-28 11:44:10 by Eclipse SUMO GUI Version 1.18.0
<configuration xmlns:xsi="http://www.w3.org/2001/XMLSchema-instance" xsi:noNamespaceSchemaLocation="http://sumo.dlr.de/xsd/sumoConfiguration.xsd">

    <input>
        <net-file value="Highway_route.net.xml"/>
        <route-files value="Highway.rou.xml"/>
    </input>

    <output>
        <fcd-output value="fcd-output.xml"/>
        <fcd-output.acceleration value="true"/>
        <amitran-output value="trajectory"/>
        <collision-output value="collision-output"/>
        <statistic-output value="statistic-output"/>
    </output>

    <time>
        <begin value="0"/>
        <end value="1000"/>
        <step-length value="0.1"/>
    </time>

    <processing>
        <collision.action value="remove"/>
        <collision.stoptime value="2"/>
        <max-num-vehicles value="40"/>
    </processing>

    <random_number>
        <random value="true"/>
    </random_number>

</configuration>
-->

<trajectories xmlns:xsi="http://www.w3.org/2001/XMLSchema-instance" xsi:noNamespaceSchemaLocation="http://sumo.dlr.de/xsd/amitran/trajectories.xsd" timeStepSize="100">
    <actorConfig id="6" vehicleClass="Passenger" fuel="Gasoline" emissionClass="Euro4" ref="EGOVEHICLE"/>
    <vehicle id="0" actorConfig="6" startTime="0" ref="EGOVEHICLE"/>
    <motionState vehicle="0" speed="0" time="0" acceleration="0"/>
    <actorConfig id="7" vehicleClass="Passenger" fuel="Gasoline" emissionClass="Euro4" ref="DEFAULTVEHCILE"/>
    <vehicle id="1" actorConfig="7" startTime="0" ref="f_0.0"/>
    <motionState vehicle="1" speed="0" time="0" acceleration="0"/>
    <vehicle id="2" actorConfig="7" startTime="0" ref="f_1.0"/>
    <motionState vehicle="2" speed="0" time="0" acceleration="0"/>
    <vehicle id="3" actorConfig="7" startTime="0" ref="f_2.0"/>
    <motionState vehicle="3" speed="0" time="0" acceleration="0"/>
    <vehicle id="4" actorConfig="7" startTime="0" ref="f_3.0"/>
    <motionState vehicle="4" speed="0" time="0" acceleration="0"/>
    <vehicle id="5" actorConfig="7" startTime="0" ref="f_4.0"/>
    <motionState vehicle="5" speed="0" time="0" acceleration="0"/>
    <vehicle id="6" actorConfig="7" startTime="0" ref="f_5.0"/>
    <motionState vehicle="6" speed="0" time="0" acceleration="0"/>
    <motionState vehicle="0" speed="3" time="100" acceleration="343"/>
    <motionState vehicle="1" speed="39" time="100" acceleration="3933"/>
    <motionState vehicle="2" speed="39" time="100" acceleration="3933"/>
    <motionState vehicle="3" speed="39" time="100" acceleration="3933"/>
    <motionState vehicle="4" speed="39" time="100" acceleration="3933"/>
    <motionState vehicle="5" speed="39" time="100" acceleration="3933"/>
    <motionState vehicle="6" speed="39" time="100" acceleration="3933"/>
    <motionState vehicle="0" speed="10" time="200" acceleration="634"/>
    <motionState vehicle="1" speed="76" time="200" acceleration="3676"/>
    <motionState vehicle="2" speed="76" time="200" acceleration="3676"/>
    <motionState vehicle="3" speed="76" time="200" acceleration="3676"/>
    <motionState vehicle="4" speed="76" time="200" acceleration="3676"/>
    <motionState vehicle="5" speed="76" time="200" acceleration="3676"/>
    <motionState vehicle="6" speed="76" time="200" acceleration="3676"/>
    <motionState vehicle="0" speed="21" time="300" acceleration="1123"/>
    <motionState vehicle="1" speed="111" time="300" acceleration="3454"/>
    <motionState vehicle="2" speed="111" time="300" acceleration="3454"/>
    <motionState vehicle="3" speed="111" time="300" acceleration="3454"/>
    <motionState vehicle="4" speed="111" time="300" acceleration="3454"/>
    <motionState vehicle="5" speed="111" time="300" acceleration="3454"/>
    <motionState vehicle="6" speed="111" time="300" acceleration="3454"/>
    <motionState vehicle="0" speed="40" time="400" acceleration="1857"/>
    <motionState vehicle="1" speed="147" time="400" acceleration="3677"/>
    <motionState vehicle="2" speed="147" time="400" acceleration="3677"/>
    <motionState vehicle="3" speed="147" time="400" acceleration="3677"/>
    <motionState vehicle="4" speed="147" time="400" acceleration="3677"/>
    <motionState vehicle="5" speed="147" time="400" acceleration="3677"/>
    <motionState vehicle="6" speed="147" time="400" acceleration="3677"/>
    <motionState vehicle="0" speed="68" time="500" acceleration="2794"/>
    <motionState vehicle="1" speed="179" time="500" acceleration="3181"/>
    <motionState vehicle="2" speed="179" time="500" acceleration="3181"/>
    <motionState vehicle="3" speed="179" time="500" acceleration="3181"/>
    <motionState vehicle="4" speed="179" time="500" acceleration="3181"/>
    <motionState vehicle="5" speed="179" time="500" acceleration="3181"/>
    <motionState vehicle="6" speed="179" time="500" acceleration="3181"/>
    <motionState vehicle="0" speed="105" time="600" acceleration="3776"/>
    <motionState vehicle="1" speed="216" time="600" acceleration="3660"/>
    <motionState vehicle="2" speed="216" time="600" acceleration="3660"/>
    <motionState vehicle="3" speed="216" time="600" acceleration="3660"/>
    <motionState vehicle="4" speed="216" time="600" acceleration="3660"/>
    <motionState vehicle="5" speed="216" time="600" acceleration="3660"/>
    <motionState vehicle="6" speed="216" time="600" acceleration="3660"/>
    <motionState vehicle="0" speed="151" time="700" acceleration="4604"/>
    <motionState vehicle="1" speed="253" time="700" acceleration="3680"/>
    <motionState vehicle="2" speed="253" time="700" acceleration="3680"/>
    <motionState vehicle="3" speed="253" time="700" acceleration="3680"/>
    <motionState vehicle="4" speed="253" time="700" acceleration="3680"/>
    <motionState vehicle="5" speed="253" time="700" acceleration="3680"/>
    <motionState vehicle="6" speed="253" time="700" acceleration="3680"/>
    <motionState vehicle="0" speed="203" time="800" acceleration="5188"/>
    <motionState vehicle="1" speed="284" time="800" acceleration="3180"/>
    <motionState vehicle="2" speed="284" time="800" acceleration="3180"/>
    <motionState vehicle="3" speed="284" time="800" acceleration="3180"/>
    <motionState vehicle="4" speed="284" time="800" acceleration="3180"/>
    <motionState vehicle="5" speed="284" time="800" acceleration="3180"/>
    <motionState vehicle="6" speed="284" time="800" acceleration="3180"/>
    <motionState vehicle="0" speed="259" time="900" acceleration="5548"/>
    <motionState vehicle="1" speed="319" time="900" acceleration="3463"/>
    <motionState vehicle="2" speed="319" time="900" acceleration="3463"/>
    <motionState vehicle="3" speed="319" time="900" acceleration="3463"/>
    <motionState vehicle="4" speed="319" time="900" acceleration="3463"/>
    <motionState vehicle="5" speed="319" time="900" acceleration="3463"/>
    <motionState vehicle="6" speed="319" time="900" acceleration="3463"/>
    <motionState vehicle="0" speed="316" time="1000" acceleration="5751"/>
    <motionState vehicle="1" speed="357" time="1000" acceleration="3793"/>
    <vehicle id="7" actorConfig="7" startTime="1000" ref="f_0.1"/>
    <motionState vehicle="7" speed="0" time="1000" acceleration="0"/>
    <motionState vehicle="2" speed="357" time="1000" acceleration="3793"/>
    <vehicle id="8" actorConfig="7" startTime="1000" ref="f_1.1"/>
    <motionState vehicle="8" speed="0" time="1000" acceleration="0"/>
    <motionState vehicle="3" speed="357" time="1000" acceleration="3793"/>
    <motionState vehicle="4" speed="357" time="1000" acceleration="3793"/>
    <vehicle id="9" actorConfig="7" startTime="1000" ref="f_3.1"/>
    <motionState vehicle="9" speed="0" time="1000" acceleration="0"/>
    <motionState vehicle="5" speed="357" time="1000" acceleration="3793"/>
    <vehicle id="10" actorConfig="7" startTime="1000" ref="f_4.1"/>
    <motionState vehicle="10" speed="0" time="1000" acceleration="0"/>
    <motionState vehicle="6" speed="357" time="1000" acceleration="3793"/>
    <vehicle id="11" actorConfig="7" startTime="1000" ref="f_5.1"/>
    <motionState vehicle="11" speed="0" time="1000" acceleration="0"/>
    <motionState vehicle="0" speed="373" time="1100" acceleration="5664"/>
    <motionState vehicle="1" speed="385" time="1100" acceleration="2778"/>
    <motionState vehicle="7" speed="39" time="1100" acceleration="3937"/>
    <motionState vehicle="2" speed="385" time="1100" acceleration="2778"/>
    <motionState vehicle="8" speed="39" time="1100" acceleration="3937"/>
    <motionState vehicle="3" speed="391" time="1100" acceleration="3372"/>
    <motionState vehicle="4" speed="385" time="1100" acceleration="2778"/>
    <motionState vehicle="9" speed="39" time="1100" acceleration="3937"/>
    <motionState vehicle="5" speed="385" time="1100" acceleration="2778"/>
    <motionState vehicle="10" speed="39" time="1100" acceleration="3937"/>
    <motionState vehicle="6" speed="391" time="1100" acceleration="3372"/>
    <motionState vehicle="11" speed="39" time="1100" acceleration="3877"/>
    <motionState vehicle="0" speed="426" time="1200" acceleration="5338"/>
    <motionState vehicle="1" speed="412" time="1200" acceleration="2684"/>
    <motionState vehicle="7" speed="77" time="1200" acceleration="3789"/>
    <motionState vehicle="2" speed="412" time="1200" acceleration="2684"/>
    <motionState vehicle="8" speed="77" time="1200" acceleration="3789"/>
    <motionState vehicle="3" speed="418" time="1200" acceleration="2769"/>
    <motionState vehicle="4" speed="412" time="1200" acceleration="2684"/>
    <motionState vehicle="9" speed="77" time="1200" acceleration="3789"/>
    <motionState vehicle="5" speed="412" time="1200" acceleration="2684"/>
    <motionState vehicle="10" speed="77" time="1200" acceleration="3789"/>
    <motionState vehicle="6" speed="420" time="1200" acceleration="2936"/>
    <motionState vehicle="11" speed="76" time="1200" acceleration="3741"/>
    <motionState vehicle="0" speed="481" time="1300" acceleration="5465"/>
    <motionState vehicle="1" speed="437" time="1300" acceleration="2512"/>
    <motionState vehicle="7" speed="112" time="1300" acceleration="3515"/>
    <motionState vehicle="2" speed="437" time="1300" acceleration="2512"/>
    <motionState vehicle="8" speed="112" time="1300" acceleration="3515"/>
    <motionState vehicle="3" speed="448" time="1300" acceleration="2936"/>
    <motionState vehicle="4" speed="437" time="1300" acceleration="2512"/>
    <motionState vehicle="9" speed="112" time="1300" acceleration="3515"/>
    <motionState vehicle="5" speed="437" time="1300" acceleration="2512"/>
    <motionState vehicle="10" speed="112" time="1300" acceleration="3515"/>
    <motionState vehicle="6" speed="444" time="1300" acceleration="2345"/>
    <motionState vehicle="11" speed="112" time="1300" acceleration="3568"/>
    <motionState vehicle="0" speed="535" time="1400" acceleration="5363"/>
    <motionState vehicle="1" speed="467" time="1400" acceleration="3057"/>
    <motionState vehicle="7" speed="152" time="1400" acceleration="3944"/>
    <motionState vehicle="2" speed="467" time="1400" acceleration="3057"/>
    <motionState vehicle="8" speed="152" time="1400" acceleration="3944"/>
    <motionState vehicle="3" speed="475" time="1400" acceleration="2684"/>
    <motionState vehicle="4" speed="467" time="1400" acceleration="3057"/>
    <motionState vehicle="9" speed="152" time="1400" acceleration="3944"/>
    <motionState vehicle="5" speed="467" time="1400" acceleration="3057"/>
    <motionState vehicle="10" speed="152" time="1400" acceleration="3944"/>
    <motionState vehicle="6" speed="482" time="1400" acceleration="3854"/>
    <motionState vehicle="11" speed="148" time="1400" acceleration="3642"/>
    <motionState vehicle="0" speed="574" time="1500" acceleration="3962"/>
    <motionState vehicle="1" speed="503" time="1500" acceleration="3548"/>
    <motionState vehicle="7" speed="186" time="1500" acceleration="3420"/>
    <motionState vehicle="2" speed="503" time="1500" acceleration="3548"/>
    <motionState vehicle="8" speed="186" time="1500" acceleration="3420"/>
    <motionState vehicle="3" speed="498" time="1500" acceleration="2345"/>
    <motionState vehicle="4" speed="503" time="1500" acceleration="3548"/>
    <motionState vehicle="9" speed="186" time="1500" acceleration="3420"/>
    <motionState vehicle="5" speed="503" time="1500" acceleration="3548"/>
    <motionState vehicle="10" speed="186" time="1500" acceleration="3420"/>
    <motionState vehicle="6" speed="510" time="1500" acceleration="2792"/>
    <motionState vehicle="11" speed="186" time="1500" acceleration="3787"/>
    <motionState vehicle="0" speed="615" time="1600" acceleration="4115"/>
    <motionState vehicle="1" speed="534" time="1600" acceleration="3125"/>
    <motionState vehicle="7" speed="221" time="1600" acceleration="3453"/>
    <motionState vehicle="2" speed="534" time="1600" acceleration="3125"/>
    <motionState vehicle="8" speed="221" time="1600" acceleration="3453"/>
    <motionState vehicle="3" speed="523" time="1600" acceleration="2512"/>
    <motionState vehicle="4" speed="534" time="1600" acceleration="3125"/>
    <motionState vehicle="9" speed="221" time="1600" acceleration="3453"/>
    <motionState vehicle="5" speed="534" time="1600" acceleration="3125"/>
    <motionState vehicle="10" speed="221" time="1600" acceleration="3453"/>
    <motionState vehicle="6" speed="540" time="1600" acceleration="3033"/>
    <motionState vehicle="11" speed="221" time="1600" acceleration="3505"/>
    <motionState vehicle="0" speed="659" time="1700" acceleration="4415"/>
    <motionState vehicle="1" speed="556" time="1700" acceleration="2231"/>
    <motionState vehicle="7" speed="250" time="1700" acceleration="2926"/>
    <motionState vehicle="2" speed="556" time="1700" acceleration="2231"/>
    <motionState vehicle="8" speed="250" time="1700" acceleration="2926"/>
    <motionState vehicle="3" speed="562" time="1700" acceleration="3854"/>
    <motionState vehicle="4" speed="556" time="1700" acceleration="2231"/>
    <motionState vehicle="9" speed="250" time="1700" acceleration="2926"/>
    <motionState vehicle="5" speed="556" time="1700" acceleration="2231"/>
    <motionState vehicle="10" speed="250" time="1700" acceleration="2926"/>
    <motionState vehicle="6" speed="564" time="1700" acceleration="2352"/>
    <motionState vehicle="11" speed="250" time="1700" acceleration="2845"/>
    <motionState vehicle="0" speed="707" time="1800" acceleration="4715"/>
    <motionState vehicle="1" speed="593" time="1800" acceleration="3628"/>
    <motionState vehicle="7" speed="288" time="1800" acceleration="3797"/>
    <motionState vehicle="2" speed="593" time="1800" acceleration="3628"/>
    <motionState vehicle="8" speed="288" time="1800" acceleration="3797"/>
    <motionState vehicle="3" speed="592" time="1800" acceleration="3057"/>
    <motionState vehicle="4" speed="593" time="1800" acceleration="3628"/>
    <motionState vehicle="9" speed="288" time="1800" acceleration="3797"/>
    <motionState vehicle="5" speed="593" time="1800" acceleration="3628"/>
    <motionState vehicle="10" speed="288" time="1800" acceleration="3797"/>
    <motionState vehicle="6" speed="601" time="1800" acceleration="3719"/>
    <motionState vehicle="11" speed="287" time="1800" acceleration="3731"/>
    <motionState vehicle="0" speed="757" time="1900" acceleration="5015"/>
    <motionState vehicle="1" speed="631" time="1900" acceleration="3826"/>
    <motionState vehicle="7" speed="318" time="1900" acceleration="2982"/>
    <motionState vehicle="2" speed="631" time="1900" acceleration="3826"/>
    <motionState vehicle="8" speed="318" time="1900" acceleration="2982"/>
    <motionState vehicle="3" speed="620" time="1900" acceleration="2792"/>
    <motionState vehicle="4" speed="631" time="1900" acceleration="3826"/>
    <motionState vehicle="9" speed="318" time="1900" acceleration="2982"/>
    <motionState vehicle="5" speed="631" time="1900" acceleration="3826"/>
    <motionState vehicle="10" speed="318" time="1900" acceleration="2982"/>
    <motionState vehicle="6" speed="629" time="1900" acceleration="2758"/>
    <motionState vehicle="11" speed="326" time="1900" acceleration="3858"/>
    <motionState vehicle="0" speed="810" time="2000" acceleration="5315"/>
    <motionState vehicle="1" speed="661" time="2000" acceleration="3033"/>
    <motionState vehicle="7" speed="356" time="2000" acceleration="3801"/>
    <vehicle id="12" actorConfig="7" startTime="2000" ref="f_0.2"/>
    <motionState vehicle="12" speed="0" time="2000" acceleration="0"/>
    <motionState vehicle="2" speed="654" time="2000" acceleration="2358"/>
    <motionState vehicle="8" speed="356" time="2000" acceleration="3801"/>
    <vehicle id="13" actorConfig="7" startTime="2000" ref="f_1.2"/>
    <motionState vehicle="13" speed="0" time="2000" acceleration="0"/>
    <motionState vehicle="3" speed="656" time="2000" acceleration="3548"/>
    <motionState vehicle="4" speed="654" time="2000" acceleration="2358"/>
    <motionState vehicle="9" speed="356" time="2000" acceleration="3801"/>
    <vehicle id="14" actorConfig="7" startTime="2000" ref="f_3.2"/>
    <motionState vehicle="14" speed="0" time="2000" acceleration="0"/>
    <motionState vehicle="5" speed="654" time="2000" acceleration="2358"/>
    <motionState vehicle="10" speed="356" time="2000" acceleration="3801"/>
    <vehicle id="15" actorConfig="7" startTime="2000" ref="f_4.2"/>
    <motionState vehicle="15" speed="0" time="2000" acceleration="0"/>
    <motionState vehicle="6" speed="666" time="2000" acceleration="3777"/>
    <motionState vehicle="11" speed="351" time="2000" acceleration="2499"/>
    <motionState vehicle="0" speed="866" time="2100" acceleration="5615"/>
    <motionState vehicle="1" speed="685" time="2100" acceleration="2352"/>
    <motionState vehicle="7" speed="386" time="2100" acceleration="2998"/>
    <motionState vehicle="12" speed="38" time="2100" acceleration="3836"/>
    <motionState vehicle="2" speed="691" time="2100" acceleration="3675"/>
    <motionState vehicle="8" speed="382" time="2100" acceleration="2677"/>
    <motionState vehicle="13" speed="39" time="2100" acceleration="3899"/>
    <motionState vehicle="3" speed="687" time="2100" acceleration="3125"/>
    <motionState vehicle="4" speed="681" time="2100" acceleration="2662"/>
    <motionState vehicle="9" speed="386" time="2100" acceleration="2998"/>
    <motionState vehicle="14" speed="40" time="2100" acceleration="3968"/>
    <motionState vehicle="5" speed="691" time="2100" acceleration="3675"/>
    <motionState vehicle="10" speed="386" time="2100" acceleration="2998"/>
    <motionState vehicle="15" speed="39" time="2100" acceleration="3866"/>
    <motionState vehicle="6" speed="696" time="2100" acceleration="2987"/>
    <motionState vehicle="11" speed="377" time="2100" acceleration="2694"/>
    <motionState vehicle="0" speed="925" time="2200" acceleration="5915"/>
    <motionState vehicle="1" speed="722" time="2200" acceleration="3719"/>
    <motionState vehicle="7" speed="422" time="2200" acceleration="3675"/>
    <motionState vehicle="12" speed="76" time="2200" acceleration="3738"/>
    <motionState vehicle="2" speed="725" time="2200" acceleration="3340"/>
    <motionState vehicle="8" speed="419" time="2200" acceleration="3701"/>
    <motionState vehicle="13" speed="77" time="2200" acceleration="3763"/>
    <motionState vehicle="3" speed="709" time="2200" acceleration="2231"/>
    <motionState vehicle="4" speed="718" time="2200" acceleration="3701"/>
    <motionState vehicle="9" speed="414" time="2200" acceleration="2799"/>
    <motionState vehicle="14" speed="78" time="2200" acceleration="3869"/>
    <motionState vehicle="5" speed="725" time="2200" acceleration="3340"/>
    <motionState vehicle="10" speed="414" time="2200" acceleration="2799"/>
    <motionState vehicle="15" speed="78" time="2200" acceleration="3941"/>
    <motionState vehicle="6" speed="733" time="2200" acceleration="3675"/>
    <motionState vehicle="11" speed="405" time="2200" acceleration="2799"/>
    <motionState vehicle="0" speed="987" time="2300" acceleration="6215"/>
    <motionState vehicle="1" speed="749" time="2300" acceleration="2758"/>
    <motionState vehicle="7" speed="459" time="2300" acceleration="3701"/>
    <motionState vehicle="12" speed="112" time="2300" acceleration="3652"/>
    <motionState vehicle="2" speed="754" time="2300" acceleration="2942"/>
    <motionState vehicle="8" speed="450" time="2300" acceleration="3029"/>
    <motionState vehicle="13" speed="115" time="2300" acceleration="3814"/>
    <motionState vehicle="3" speed="745" time="2300" acceleration="3628"/>
    <motionState vehicle="4" speed="748" time="2300" acceleration="3029"/>
    <motionState vehicle="9" speed="447" time="2300" acceleration="3363"/>
    <motionState vehicle="14" speed="115" time="2300" acceleration="3687"/>
    <motionState vehicle="5" speed="754" time="2300" acceleration="2942"/>
    <motionState vehicle="10" speed="447" time="2300" acceleration="3363"/>
    <motionState vehicle="15" speed="115" time="2300" acceleration="3713"/>
    <motionState vehicle="6" speed="770" time="2300" acceleration="3701"/>
    <motionState vehicle="11" speed="439" time="2300" acceleration="3340"/>
    <motionState vehicle="0" speed="1052" time="2400" acceleration="6515"/>
    <motionState vehicle="1" speed="787" time="2400" acceleration="3777"/>
    <motionState vehicle="7" speed="493" time="2400" acceleration="3363"/>
    <motionState vehicle="12" speed="150" time="2400" acceleration="3749"/>
    <motionState vehicle="2" speed="784" time="2400" acceleration="3022"/>
    <motionState vehicle="8" speed="474" time="2400" acceleration="2463"/>
    <motionState vehicle="13" speed="153" time="2400" acceleration="3811"/>
    <motionState vehicle="3" speed="784" time="2400" acceleration="3826"/>
    <motionState vehicle="4" speed="773" time="2400" acceleration="2463"/>
    <motionState vehicle="9" speed="482" time="2400" acceleration="3511"/>
    <motionState vehicle="14" speed="151" time="2400" acceleration="3620"/>
    <motionState vehicle="5" speed="725" time="2400" acceleration="-2935"/>
    <motionState vehicle="10" speed="482" time="2400" acceleration="3511"/>
    <motionState vehicle="15" speed="149" time="2400" acceleration="3404"/>
    <motionState vehicle="6" speed="804" time="2400" acceleration="3363"/>
    <motionState vehicle="11" speed="469" time="2400" acceleration="3029"/>
    <vehicle id="16" actorConfig="7" startTime="2400" ref="f_5.2"/>
    <motionState vehicle="16" speed="0" time="2400" acceleration="0"/>
    <motionState vehicle="0" speed="1121" time="2500" acceleration="6815"/>
    <motionState vehicle="1" speed="817" time="2500" acceleration="2987"/>
    <motionState vehicle="7" speed="522" time="2500" acceleration="2942"/>
    <motionState vehicle="12" speed="185" time="2500" acceleration="3540"/>
    <motionState vehicle="2" speed="821" time="2500" acceleration="3716"/>
    <motionState vehicle="8" speed="497" time="2500" acceleration="2286"/>
    <motionState vehicle="13" speed="192" time="2500" acceleration="3865"/>
    <motionState vehicle="3" speed="807" time="2500" acceleration="2358"/>
    <motionState vehicle="4" speed="810" time="2500" acceleration="3716"/>
    <motionState vehicle="9" speed="520" time="2500" acceleration="3719"/>
    <motionState vehicle="14" speed="188" time="2500" acceleration="3705"/>
    <motionState vehicle="5" speed="701" time="2500" acceleration="-2379"/>
    <motionState vehicle="10" speed="520" time="2500" acceleration="3719"/>
    <motionState vehicle="15" speed="181" time="2500" acceleration="3189"/>
    <motionState vehicle="6" speed="833" time="2500" acceleration="2942"/>
    <motionState vehicle="11" speed="504" time="2500" acceleration="3511"/>
    <motionState vehicle="16" speed="38" time="2500" acceleration="3829"/>
    <motionState vehicle="0" speed="1192" time="2600" acceleration="7115"/>
    <motionState vehicle="1" speed="854" time="2600" acceleration="3675"/>
    <motionState vehicle="7" speed="547" time="2600" acceleration="2463"/>
    <motionState vehicle="12" speed="222" time="2600" acceleration="3725"/>
    <motionState vehicle="2" speed="859" time="2600" acceleration="3793"/>
    <motionState vehicle="8" speed="520" time="2600" acceleration="2241"/>
    <motionState vehicle="13" speed="228" time="2600" acceleration="3643"/>
    <motionState vehicle="3" speed="834" time="2600" acceleration="2662"/>
    <motionState vehicle="4" speed="839" time="2600" acceleration="2879"/>
    <motionState vehicle="9" speed="542" time="2600" acceleration="2241"/>
    <motionState vehicle="14" speed="221" time="2600" acceleration="3296"/>
    <motionState vehicle="5" speed="674" time="2600" acceleration="-2638"/>
    <motionState vehicle="10" speed="553" time="2600" acceleration="3384"/>
    <motionState vehicle="15" speed="211" time="2600" acceleration="3028"/>
    <motionState vehicle="6" speed="858" time="2600" acceleration="2463"/>
    <motionState vehicle="11" speed="534" time="2600" acceleration="3022"/>
    <motionState vehicle="16" speed="78" time="2600" acceleration="3960"/>
    <motionState vehicle="0" speed="1266" time="2700" acceleration="7415"/>
    <motionState vehicle="1" speed="891" time="2700" acceleration="3701"/>
    <motionState vehicle="7" speed="584" time="2700" acceleration="3719"/>
    <motionState vehicle="12" speed="256" time="2700" acceleration="3358"/>
    <motionState vehicle="2" speed="886" time="2700" acceleration="2694"/>
    <motionState vehicle="8" speed="547" time="2700" acceleration="2768"/>
    <motionState vehicle="13" speed="260" time="2700" acceleration="3249"/>
    <motionState vehicle="3" speed="862" time="2700" acceleration="2799"/>
    <motionState vehicle="4" speed="879" time="2700" acceleration="3961"/>
    <motionState vehicle="9" speed="569" time="2700" acceleration="2694"/>
    <motionState vehicle="14" speed="255" time="2700" acceleration="3379"/>
    <motionState vehicle="5" speed="640" time="2700" acceleration="-3427"/>
    <motionState vehicle="10" speed="582" time="2700" acceleration="2879"/>
    <motionState vehicle="15" speed="244" time="2700" acceleration="3226"/>
    <motionState vehicle="6" speed="895" time="2700" acceleration="3719"/>
    <motionState vehicle="11" speed="557" time="2700" acceleration="2286"/>
    <motionState vehicle="16" speed="117" time="2700" acceleration="3896"/>
    <motionState vehicle="0" speed="1343" time="2800" acceleration="7715"/>
    <motionState vehicle="1" speed="925" time="2800" acceleration="3363"/>
    <motionState vehicle="7" speed="621" time="2800" acceleration="3716"/>
    <motionState vehicle="12" speed="283" time="2800" acceleration="2731"/>
    <motionState vehicle="2" speed="917" time="2800" acceleration="3049"/>
    <motionState vehicle="8" speed="587" time="2800" acceleration="3961"/>
    <motionState vehicle="13" speed="298" time="2800" acceleration="3736"/>
    <motionState vehicle="3" speed="895" time="2800" acceleration="3340"/>
    <motionState vehicle="4" speed="912" time="2800" acceleration="3341"/>
    <motionState vehicle="9" speed="600" time="2800" acceleration="3112"/>
    <motionState vehicle="14" speed="285" time="2800" acceleration="3007"/>
    <motionState vehicle="5" speed="626" time="2800" acceleration="-1465"/>
    <motionState vehicle="10" speed="619" time="2800" acceleration="3648"/>
    <motionState vehicle="15" speed="283" time="2800" acceleration="3972"/>
    <motionState vehicle="6" speed="932" time="2800" acceleration="3716"/>
    <motionState vehicle="11" speed="591" time="2800" acceleration="3384"/>
    <motionState vehicle="16" speed="149" time="2800" acceleration="3265"/>
    <motionState vehicle="0" speed="1423" time="2900" acceleration="8015"/>
    <motionState vehicle="1" speed="954" time="2900" acceleration="2942"/>
    <motionState vehicle="7" speed="644" time="2900" acceleration="2241"/>
    <motionState vehicle="12" speed="318" time="2900" acceleration="3502"/>
    <motionState vehicle="2" speed="950" time="2900" acceleration="3341"/>
    <motionState vehicle="8" speed="608" time="2900" acceleration="2126"/>
    <motionState vehicle="13" speed="330" time="2900" acceleration="3250"/>
    <motionState vehicle="3" speed="926" time="2900" acceleration="3029"/>
    <motionState vehicle="4" speed="942" time="2900" acceleration="3012"/>
    <motionState vehicle="9" speed="633" time="2900" acceleration="3334"/>
    <motionState vehicle="14" speed="313" time="2900" acceleration="2796"/>
    <motionState vehicle="5" speed="618" time="2900" acceleration="-741"/>
    <motionState vehicle="10" speed="650" time="2900" acceleration="3112"/>
    <motionState vehicle="15" speed="308" time="2900" acceleration="2485"/>
    <motionState vehicle="6" speed="954" time="2900" acceleration="2241"/>
    <motionState vehicle="11" speed="629" time="2900" acceleration="3793"/>
    <motionState vehicle="16" speed="181" time="2900" acceleration="3109"/>
    <motionState vehicle="0" speed="1506" time="3000" acceleration="8315"/>
    <motionState vehicle="1" speed="979" time="3000" acceleration="2463"/>
    <motionState vehicle="7" speed="673" time="3000" acceleration="2879"/>
    <motionState vehicle="12" speed="356" time="3000" acceleration="3815"/>
    <vehicle id="17" actorConfig="7" startTime="3000" ref="f_0.3"/>
    <motionState vehicle="17" speed="0" time="3000" acceleration="0"/>
    <motionState vehicle="2" speed="980" time="3000" acceleration="3012"/>
    <motionState vehicle="8" speed="629" time="3000" acceleration="2119"/>
    <motionState vehicle="13" speed="358" time="3000" acceleration="2755"/>
    <motionState vehicle="3" speed="961" time="3000" acceleration="3511"/>
    <motionState vehicle="4" speed="975" time="3000" acceleration="3281"/>