<?xml version="1.0" encoding="UTF-8"?>

<!-- generated on 2023-09-27 18:46:31 by Eclipse SUMO netedit Version 1.18.0
-->

<routes xmlns:xsi="http://www.w3.org/2001/XMLSchema-instance" xsi:noNamespaceSchemaLocation="http://sumo.dlr.de/xsd/routes_file.xsd">
    <!-- VTypes -->
    <vType id="col_1" vClass="passenger" lcStrategic="0.5" lcCooperative="1" lcSpeedGain="3" lcKeepRight="1" lcAssertive="10" lcLookaheadLeft="0.5" lcSpeedGainRight="10" lcOvertakeRight="1" tau="0.1"/>
    <vType id="t_0" guiShape="passenger" tau="0.05"/>
    <!-- Routes -->
    <route id="r_0" edges="-E2 -E1"/>
    <!-- Vehicles, persons and containers (sorted by depart) -->
    <flow id="f_0" type="col_1" begin="0.00" departLane="1" arrivalLane="0" color="red" route="r_0" end="30.00" vehsPerHour="3600.00"/>
    <flow id="f_2" begin="0.00" departLane="0" arrivalLane="0" route="r_0" end="30.00" vehsPerHour="3600.00"/>
</routes>
