<?xml version="1.0" encoding="UTF-8"?>

<!-- generated on 2023-09-27 18:56:28 by Eclipse SUMO netedit Version 1.18.0
<configuration xmlns:xsi="http://www.w3.org/2001/XMLSchema-instance" xsi:noNamespaceSchemaLocation="http://sumo.dlr.de/xsd/neteditConfiguration.xsd">

    <input>
        <sumocfg-file value="C:\Users\vinay\Desktop\ECE_699\sumo_road\INTERSECTION_FINAL\scenario_5\sc5.sumocfg"/>
        <route-files value="C:\Users\vinay\Desktop\ECE_699\sumo_road\INTERSECTION_FINAL\scenario_5\sc5.rou.xml"/>
        <sumo-net-file value="C:\Users\vinay\Desktop\ECE_699\sumo_road\INTERSECTION_FINAL\scenario_5\scene5.net.xml"/>
    </input>

    <output>
        <output-file value="C:\Users\vinay\Desktop\ECE_699\sumo_road\INTERSECTION_FINAL\scenario_5\scene5.net.xml"/>
    </output>

    <processing>
        <geometry.min-radius.fix.railways value="false"/>
        <geometry.max-grade.fix value="false"/>
        <offset.disable-normalization value="true"/>
        <lefthand value="0"/>
    </processing>

    <junctions>
        <no-turnarounds value="true"/>
        <junctions.corner-detail value="5"/>
        <junctions.limit-turn-speed value="5.50"/>
        <rectangular-lane-cut value="0"/>
    </junctions>

    <pedestrian>
        <walkingareas value="0"/>
    </pedestrian>

</configuration>
-->

<net version="1.16" junctionCornerDetail="5" limitTurnSpeed="5.50" xmlns:xsi="http://www.w3.org/2001/XMLSchema-instance" xsi:noNamespaceSchemaLocation="http://sumo.dlr.de/xsd/net_file.xsd">

    <location netOffset="0.00,0.00" convBoundary="0.00,0.00,200.00,200.00" origBoundary="-10000000000.00,-10000000000.00,10000000000.00,10000000000.00" projParameter="!"/>

    <edge id=":J3_0" function="internal">
        <lane id=":J3_0_0" index="0" speed="6.51" length="9.03" shape="92.00,113.60 91.65,111.15 90.60,109.40 88.85,108.35 86.40,108.00"/>
    </edge>
    <edge id=":J3_1" function="internal">
        <lane id=":J3_1_0" index="0" speed="13.89" length="27.20" shape="92.00,113.60 92.00,86.40"/>
        <lane id=":J3_1_1" index="1" speed="13.89" length="27.20" shape="95.20,113.60 95.20,86.40"/>
        <lane id=":J3_1_2" index="2" speed="13.89" length="27.20" shape="98.40,113.60 98.40,86.40"/>
    </edge>
    <edge id=":J3_4" function="internal">
        <lane id=":J3_4_0" index="0" speed="10.36" length="5.01" shape="98.40,113.60 99.11,108.64"/>
    </edge>
    <edge id=":J3_20" function="internal">
        <lane id=":J3_20_0" index="0" speed="10.36" length="19.50" shape="99.11,108.64 99.35,106.95 102.20,102.20 106.95,99.35 113.60,98.40"/>
    </edge>
    <edge id=":J3_5" function="internal">
        <lane id=":J3_5_0" index="0" speed="6.51" length="9.03" shape="113.60,108.00 111.15,108.35 109.40,109.40 108.35,111.15 108.00,113.60"/>
    </edge>
    <edge id=":J3_6" function="internal">
        <lane id=":J3_6_0" index="0" speed="13.89" length="27.20" shape="113.60,108.00 86.40,108.00"/>
        <lane id=":J3_6_1" index="1" speed="13.89" length="27.20" shape="113.60,104.80 86.40,104.80"/>
        <lane id=":J3_6_2" index="2" speed="13.89" length="27.20" shape="113.60,101.60 86.40,101.60"/>
    </edge>
    <edge id=":J3_9" function="internal">
        <lane id=":J3_9_0" index="0" speed="10.36" length="5.01" shape="113.60,101.60 108.64,100.89"/>
    </edge>
    <edge id=":J3_21" function="internal">
        <lane id=":J3_21_0" index="0" speed="10.36" length="19.50" shape="108.64,100.89 106.95,100.65 102.20,97.80 99.35,93.05 98.40,86.40"/>
    </edge>
    <edge id=":J3_10" function="internal">
        <lane id=":J3_10_0" index="0" speed="6.51" length="9.03" shape="108.00,86.40 108.35,88.85 109.40,90.60 111.15,91.65 113.60,92.00"/>
    </edge>
    <edge id=":J3_11" function="internal">
        <lane id=":J3_11_0" index="0" speed="13.89" length="27.20" shape="108.00,86.40 108.00,113.60"/>
        <lane id=":J3_11_1" index="1" speed="13.89" length="27.20" shape="104.80,86.40 104.80,113.60"/>
        <lane id=":J3_11_2" index="2" speed="13.89" length="27.20" shape="101.60,86.40 101.60,113.60"/>
    </edge>
    <edge id=":J3_14" function="internal">
        <lane id=":J3_14_0" index="0" speed="10.36" length="5.01" shape="101.60,86.40 100.89,91.36"/>
    </edge>
    <edge id=":J3_22" function="internal">
        <lane id=":J3_22_0" index="0" speed="10.36" length="19.50" shape="100.89,91.36 100.65,93.05 97.80,97.80 93.05,100.65 86.40,101.60"/>
    </edge>
    <edge id=":J3_15" function="internal">
        <lane id=":J3_15_0" index="0" speed="6.51" length="9.03" shape="86.40,92.00 88.85,91.65 90.60,90.60 91.65,88.85 92.00,86.40"/>
    </edge>
    <edge id=":J3_16" function="internal">
        <lane id=":J3_16_0" index="0" speed="13.89" length="27.20" shape="86.40,92.00 113.60,92.00"/>
        <lane id=":J3_16_1" index="1" speed="13.89" length="27.20" shape="86.40,95.20 113.60,95.20"/>
        <lane id=":J3_16_2" index="2" speed="13.89" length="27.20" shape="86.40,98.40 113.60,98.40"/>
    </edge>
    <edge id=":J3_19" function="internal">
        <lane id=":J3_19_0" index="0" speed="10.36" length="5.01" shape="86.40,98.40 91.36,99.11"/>
    </edge>
    <edge id=":J3_23" function="internal">
        <lane id=":J3_23_0" index="0" speed="10.36" length="19.50" shape="91.36,99.11 93.05,99.35 97.80,102.20 100.65,106.95 101.60,113.60"/>
    </edge>

    <edge id="-E1" from="J3" to="J2" priority="-1">
        <lane id="-E1_0" index="0" speed="13.89" length="86.40" shape="86.40,108.00 0.00,108.00"/>
        <lane id="-E1_1" index="1" speed="13.89" length="86.40" shape="86.40,104.80 0.00,104.80"/>
        <lane id="-E1_2" index="2" speed="13.89" length="86.40" shape="86.40,101.60 0.00,101.60"/>
    </edge>
    <edge id="-E2" from="J4" to="J3" priority="-1">
        <lane id="-E2_0" index="0" speed="13.89" length="86.40" shape="200.00,108.00 113.60,108.00"/>
        <lane id="-E2_1" index="1" speed="13.89" length="86.40" shape="200.00,104.80 113.60,104.80"/>
        <lane id="-E2_2" index="2" speed="13.89" length="86.40" shape="200.00,101.60 113.60,101.60"/>
    </edge>
    <edge id="-E3" from="J3" to="J5" priority="-1">
        <lane id="-E3_0" index="0" speed="13.89" length="86.40" shape="108.00,113.60 108.00,200.00"/>
        <lane id="-E3_1" index="1" speed="13.89" length="86.40" shape="104.80,113.60 104.80,200.00"/>
        <lane id="-E3_2" index="2" speed="13.89" length="86.40" shape="101.60,113.60 101.60,200.00"/>
    </edge>
    <edge id="-E4" from="J6" to="J3" priority="-1">
        <lane id="-E4_0" index="0" speed="13.89" length="86.40" shape="108.00,0.00 108.00,86.40"/>
        <lane id="-E4_1" index="1" speed="13.89" length="86.40" shape="104.80,0.00 104.80,86.40"/>
        <lane id="-E4_2" index="2" speed="13.89" length="86.40" shape="101.60,0.00 101.60,86.40"/>
    </edge>
    <edge id="E1" from="J2" to="J3" priority="-1">
        <lane id="E1_0" index="0" speed="13.89" length="86.40" shape="0.00,92.00 86.40,92.00"/>
        <lane id="E1_1" index="1" speed="13.89" length="86.40" shape="0.00,95.20 86.40,95.20"/>
        <lane id="E1_2" index="2" speed="13.89" length="86.40" shape="0.00,98.40 86.40,98.40"/>
    </edge>
    <edge id="E2" from="J3" to="J4" priority="-1">
        <lane id="E2_0" index="0" speed="13.89" length="86.40" shape="113.60,92.00 200.00,92.00"/>
        <lane id="E2_1" index="1" speed="13.89" length="86.40" shape="113.60,95.20 200.00,95.20"/>
        <lane id="E2_2" index="2" speed="13.89" length="86.40" shape="113.60,98.40 200.00,98.40"/>
    </edge>
    <edge id="E3" from="J5" to="J3" priority="-1">
        <lane id="E3_0" index="0" speed="13.89" length="86.40" shape="92.00,200.00 92.00,113.60"/>
        <lane id="E3_1" index="1" speed="13.89" length="86.40" shape="95.20,200.00 95.20,113.60"/>
        <lane id="E3_2" index="2" speed="13.89" length="86.40" shape="98.40,200.00 98.40,113.60"/>
    </edge>
    <edge id="E4" from="J3" to="J6" priority="-1">
        <lane id="E4_0" index="0" speed="13.89" length="86.40" shape="92.00,86.40 92.00,0.00"/>
        <lane id="E4_1" index="1" speed="13.89" length="86.40" shape="95.20,86.40 95.20,0.00"/>
        <lane id="E4_2" index="2" speed="13.89" length="86.40" shape="98.40,86.40 98.40,0.00"/>
    </edge>

    <tlLogic id="J3" type="static" programID="0" offset="0">
        <phase duration="42" state="GGGGgrrrrrGGGGgrrrrr"/>
        <phase duration="3"  state="yyyyyrrrrryyyyyrrrrr"/>
        <phase duration="42" state="rrrrrGGGGgrrrrrGGGGg"/>
        <phase duration="3"  state="rrrrryyyyyrrrrryyyyy"/>
    </tlLogic>

    <junction id="J2" type="dead_end" x="0.00" y="100.00" incLanes="-E1_0 -E1_1 -E1_2" intLanes="" shape="0.00,100.00 0.00,109.60 0.00,100.00"/>
    <junction id="J3" type="traffic_light" x="100.00" y="100.00" incLanes="E3_0 E3_1 E3_2 -E2_0 -E2_1 -E2_2 -E4_0 -E4_1 -E4_2 E1_0 E1_1 E1_2" intLanes=":J3_0_0 :J3_1_0 :J3_1_1 :J3_1_2 :J3_20_0 :J3_5_0 :J3_6_0 :J3_6_1 :J3_6_2 :J3_21_0 :J3_10_0 :J3_11_0 :J3_11_1 :J3_11_2 :J3_22_0 :J3_15_0 :J3_16_0 :J3_16_1 :J3_16_2 :J3_23_0" shape="90.40,113.60 109.60,113.60 110.04,111.38 110.60,110.60 111.38,110.04 112.38,109.71 113.60,109.60 113.60,90.40 111.38,89.96 110.60,89.40 110.04,88.62 109.71,87.62 109.60,86.40 90.40,86.40 89.96,88.62 89.40,89.40 88.62,89.96 87.62,90.29 86.40,90.40 86.40,109.60 88.62,110.04 89.40,110.60 89.96,111.38 90.29,112.38">
        <request index="0"  response="00000000000000000000" foes="00000000000111000000" cont="0"/>
        <request index="1"  response="10000000001000000000" foes="11111100001111000000" cont="0"/>
        <request index="2"  response="10000000001000000000" foes="11111100001111000000" cont="0"/>
        <request index="3"  response="10000000001000000000" foes="11111100001111000000" cont="0"/>
        <request index="4"  response="10000011101000000000" foes="11110011101111000000" cont="1"/>
        <request index="5"  response="00000011100000000000" foes="00000011100000000000" cont="0"/>
        <request index="6"  response="00000111100000011111" foes="10000111100000011111" cont="0"/>
        <request index="7"  response="00000111100000011111" foes="10000111100000011111" cont="0"/>
        <request index="8"  response="00000111100000011111" foes="10000111100000011111" cont="0"/>
        <request index="9"  response="01110111100000011110" foes="01110111100000011110" cont="1"/>
        <request index="10" response="00000000000000000000" foes="01110000000000000000" cont="0"/>
        <request index="11" response="10000000001000000000" foes="11110000001111110000" cont="0"/>
        <request index="12" response="10000000001000000000" foes="11110000001111110000" cont="0"/>
        <request index="13" response="10000000001000000000" foes="11110000001111110000" cont="0"/>
        <request index="14" response="10000000001000001110" foes="11110000001111001110" cont="1"/>
        <request index="15" response="00000000000000001110" foes="00000000000000001110" cont="0"/>
        <request index="16" response="00000111110000011110" foes="00000111111000011110" cont="0"/>
        <request index="17" response="00000111110000011110" foes="00000111111000011110" cont="0"/>
        <request index="18" response="00000111110000011110" foes="00000111111000011110" cont="0"/>
        <request index="19" response="00000111100111011110" foes="00000111100111011110" cont="1"/>
    </junction>
    <junction id="J4" type="dead_end" x="200.00" y="100.00" incLanes="E2_0 E2_1 E2_2" intLanes="" shape="200.00,100.00 200.00,90.40 200.00,100.00"/>
    <junction id="J5" type="dead_end" x="100.00" y="200.00" incLanes="-E3_0 -E3_1 -E3_2" intLanes="" shape="100.00,200.00 109.60,200.00 100.00,200.00"/>
    <junction id="J6" type="dead_end" x="100.00" y="0.00" incLanes="E4_0 E4_1 E4_2" intLanes="" shape="100.00,0.00 90.40,0.00 100.00,0.00"/>

    <junction id=":J3_20_0" type="internal" x="99.11" y="108.64" incLanes=":J3_4_0 -E4_0 -E4_1 -E4_2" intLanes=":J3_6_0 :J3_6_1 :J3_6_2 :J3_9_0 :J3_10_0 :J3_11_0 :J3_11_1 :J3_11_2 :J3_16_0 :J3_16_1 :J3_16_2 :J3_19_0"/>
    <junction id=":J3_21_0" type="internal" x="108.64" y="100.89" incLanes=":J3_9_0 E1_0 E1_1 E1_2" intLanes=":J3_1_0 :J3_1_1 :J3_1_2 :J3_4_0 :J3_11_0 :J3_11_1 :J3_11_2 :J3_14_0 :J3_15_0 :J3_16_0 :J3_16_1 :J3_16_2"/>
    <junction id=":J3_22_0" type="internal" x="100.89" y="91.36" incLanes=":J3_14_0 E3_0 E3_1 E3_2" intLanes=":J3_0_0 :J3_1_0 :J3_1_1 :J3_1_2 :J3_6_0 :J3_6_1 :J3_6_2 :J3_9_0 :J3_16_0 :J3_16_1 :J3_16_2 :J3_19_0"/>
    <junction id=":J3_23_0" type="internal" x="91.36" y="99.11" incLanes=":J3_19_0 -E2_0 -E2_1 -E2_2" intLanes=":J3_1_0 :J3_1_1 :J3_1_2 :J3_4_0 :J3_5_0 :J3_6_0 :J3_6_1 :J3_6_2 :J3_11_0 :J3_11_1 :J3_11_2 :J3_14_0"/>

    <connection from="-E2" to="-E3" fromLane="0" toLane="0" via=":J3_5_0" tl="J3" linkIndex="5" dir="r" state="o"/>
    <connection from="-E2" to="-E1" fromLane="0" toLane="0" via=":J3_6_0" tl="J3" linkIndex="6" dir="s" state="o"/>
    <connection from="-E2" to="-E1" fromLane="1" toLane="1" via=":J3_6_1" tl="J3" linkIndex="7" dir="s" state="o"/>
    <connection from="-E2" to="-E1" fromLane="2" toLane="2" via=":J3_6_2" tl="J3" linkIndex="8" dir="s" state="o"/>
    <connection from="-E2" to="E4" fromLane="2" toLane="2" via=":J3_9_0" tl="J3" linkIndex="9" dir="l" state="o"/>
    <connection from="-E4" to="E2" fromLane="0" toLane="0" via=":J3_10_0" tl="J3" linkIndex="10" dir="r" state="O"/>
    <connection from="-E4" to="-E3" fromLane="0" toLane="0" via=":J3_11_0" tl="J3" linkIndex="11" dir="s" state="O"/>
    <connection from="-E4" to="-E3" fromLane="1" toLane="1" via=":J3_11_1" tl="J3" linkIndex="12" dir="s" state="O"/>
    <connection from="-E4" to="-E3" fromLane="2" toLane="2" via=":J3_11_2" tl="J3" linkIndex="13" dir="s" state="O"/>
    <connection from="-E4" to="-E1" fromLane="2" toLane="2" via=":J3_14_0" tl="J3" linkIndex="14" dir="l" state="o"/>
    <connection from="E1" to="E4" fromLane="0" toLane="0" via=":J3_15_0" tl="J3" linkIndex="15" dir="r" state="o"/>
    <connection from="E1" to="E2" fromLane="0" toLane="0" via=":J3_16_0" tl="J3" linkIndex="16" dir="s" state="o"/>
    <connection from="E1" to="E2" fromLane="1" toLane="1" via=":J3_16_1" tl="J3" linkIndex="17" dir="s" state="o"/>
    <connection from="E1" to="E2" fromLane="2" toLane="2" via=":J3_16_2" tl="J3" linkIndex="18" dir="s" state="o"/>
    <connection from="E1" to="-E3" fromLane="2" toLane="2" via=":J3_19_0" tl="J3" linkIndex="19" dir="l" state="o"/>
    <connection from="E3" to="-E1" fromLane="0" toLane="0" via=":J3_0_0" tl="J3" linkIndex="0" dir="r" state="O"/>
    <connection from="E3" to="E4" fromLane="0" toLane="0" via=":J3_1_0" tl="J3" linkIndex="1" dir="s" state="O"/>
    <connection from="E3" to="E4" fromLane="1" toLane="1" via=":J3_1_1" tl="J3" linkIndex="2" dir="s" state="O"/>
    <connection from="E3" to="E4" fromLane="2" toLane="2" via=":J3_1_2" tl="J3" linkIndex="3" dir="s" state="O"/>
    <connection from="E3" to="E2" fromLane="2" toLane="2" via=":J3_4_0" tl="J3" linkIndex="4" dir="l" state="o"/>

    <connection from=":J3_0" to="-E1" fromLane="0" toLane="0" dir="r" state="M"/>
    <connection from=":J3_1" to="E4" fromLane="0" toLane="0" dir="s" state="M"/>
    <connection from=":J3_1" to="E4" fromLane="1" toLane="1" dir="s" state="M"/>
    <connection from=":J3_1" to="E4" fromLane="2" toLane="2" dir="s" state="M"/>
    <connection from=":J3_4" to="E2" fromLane="0" toLane="2" via=":J3_20_0" dir="l" state="m"/>
    <connection from=":J3_20" to="E2" fromLane="0" toLane="2" dir="l" state="M"/>
    <connection from=":J3_5" to="-E3" fromLane="0" toLane="0" dir="r" state="M"/>
    <connection from=":J3_6" to="-E1" fromLane="0" toLane="0" dir="s" state="M"/>
    <connection from=":J3_6" to="-E1" fromLane="1" toLane="1" dir="s" state="M"/>
    <connection from=":J3_6" to="-E1" fromLane="2" toLane="2" dir="s" state="M"/>
    <connection from=":J3_9" to="E4" fromLane="0" toLane="2" via=":J3_21_0" dir="l" state="m"/>
    <connection from=":J3_21" to="E4" fromLane="0" toLane="2" dir="l" state="M"/>
    <connection from=":J3_10" to="E2" fromLane="0" toLane="0" dir="r" state="M"/>
    <connection from=":J3_11" to="-E3" fromLane="0" toLane="0" dir="s" state="M"/>
    <connection from=":J3_11" to="-E3" fromLane="1" toLane="1" dir="s" state="M"/>
    <connection from=":J3_11" to="-E3" fromLane="2" toLane="2" dir="s" state="M"/>
    <connection from=":J3_14" to="-E1" fromLane="0" toLane="2" via=":J3_22_0" dir="l" state="m"/>
    <connection from=":J3_22" to="-E1" fromLane="0" toLane="2" dir="l" state="M"/>
    <connection from=":J3_15" to="E4" fromLane="0" toLane="0" dir="r" state="M"/>
    <connection from=":J3_16" to="E2" fromLane="0" toLane="0" dir="s" state="M"/>
    <connection from=":J3_16" to="E2" fromLane="1" toLane="1" dir="s" state="M"/>
    <connection from=":J3_16" to="E2" fromLane="2" toLane="2" dir="s" state="M"/>
    <connection from=":J3_19" to="-E3" fromLane="0" toLane="2" via=":J3_23_0" dir="l" state="m"/>
    <connection from=":J3_23" to="-E3" fromLane="0" toLane="2" dir="l" state="M"/>

</net>
