<?xml version="1.0" encoding="UTF-8"?>

<!-- generated on 2023-12-13 16:08:35 by Eclipse SUMO netconvert Version 1.18.0
<configuration xmlns:xsi="http://www.w3.org/2001/XMLSchema-instance" xsi:noNamespaceSchemaLocation="http://sumo.dlr.de/xsd/netconvertConfiguration.xsd">

    <input>
        <sumo-net-file value="C:\Users\saiko\Desktop\2023-12-13-16-05-48\osm.net.xml\osm.net.xml"/>
    </input>

    <output>
        <opendrive-output value="map.xodr"/>
        <output.street-names value="true"/>
    </output>

    <processing>
        <geometry.min-radius.fix.railways value="false"/>
        <geometry.max-grade.fix value="false"/>
        <offset.disable-normalization value="true"/>
        <lefthand value="0"/>
    </processing>

    <junctions>
        <no-turnarounds value="true"/>
        <junctions.corner-detail value="5"/>
        <junctions.limit-turn-speed value="5.50"/>
    </junctions>

    <pedestrian>
        <walkingareas value="0"/>
    </pedestrian>

</configuration>
-->

<OpenDRIVE>
    <header revMajor="1" revMinor="4" name="" version="1.00" date="Wed Dec 13 16:08:35 2023" north="2261.28" south="0.00" east="744.33" west="0.00">
        <geoReference>
 <![CDATA[
 +proj=utm +zone=17 +ellps=WGS84 +datum=WGS84 +units=m +no_defs
]]>
        </geoReference>
        <offset x="-484347.01" y="-4754485.15" z="0.00" hdg="0"/>
    </header>
    <road name="" length="330.58280060" id="180" junction="-1">
        <link>
            <successor elementType="junction" elementId="1"/>
        </link>
        <type s="0" type="town"/>
        <planView>
            <geometry s="0.00000000" x="633.63881026" y="90.74621211" hdg="1.72911117" length="55.69875292">
                <line/>
            </geometry>
            <geometry s="55.69875292" x="624.85765943" y="145.74841631" hdg="1.72911117" length="22.21483791">
                <paramPoly3 aU="0.00000000" bU="16.66011244" cU="16.66010957" dU="-11.11325360" aV="-0.00000000" bV="-0.00000000" cV="0.80716422" dV="-0.26921251" pRange="normalized"/>
            </geometry>
            <geometry s="77.91359083" x="620.82540993" y="167.59286188" hdg="1.77755061" length="166.68661054">
                <line/>
            </geometry>
            <geometry s="244.60020137" x="586.60724969" y="330.72944160" hdg="1.77755061" length="22.14907980">
                <paramPoly3 aU="0.00000000" bU="16.60674294" cU="16.44611419" dU="-10.98793775" aV="-0.00000000" bV="-0.00000000" cV="-4.00918718" dV="2.15936522" pRange="normalized"/>
            </geometry>
            <geometry s="266.74928117" x="583.88809116" y="352.70416994" hdg="1.68466691" length="2.75730435">
                <paramPoly3 aU="0.00000000" bU="2.06529729" cU="2.09124368" dU="-1.41042836" aV="-0.00000000" bV="0.00000000" cV="-0.16773405" dV="-0.03694346" pRange="normalized"/>
            </geometry>
            <geometry s="269.50658552" x="583.77941702" y="355.45575444" hdg="1.46685468" length="21.93317680">
                <paramPoly3 aU="0.00000000" bU="16.44850836" cU="16.46267278" dU="-10.98336849" aV="0.00000000" bV="-0.00000000" cV="-0.27855956" dV="-0.11501758" pRange="normalized"/>
            </geometry>
            <geometry s="291.43976231" x="586.44598116" y="377.22438568" hdg="1.41197889" length="6.54454463">
                <paramPoly3 aU="0.00000000" bU="4.89301491" cU="5.02562498" dU="-3.44506335" aV="0.00000000" bV="0.00000000" cV="-0.78658582" dV="-0.02313158" pRange="normalized"/>
            </geometry>
            <geometry s="297.98430695" x="588.26930851" y="383.48843492" hdg="1.06963470" length="21.41100555">
                <paramPoly3 aU="0.00000000" bU="15.99704555" cU="16.82826929" dU="-11.54260467" aV="0.00000000" bV="0.00000000" cV="1.25795943" dV="-2.66838456" pRange="normalized"/>
            </geometry>
            <geometry s="319.39531250" x="599.73145073" y="401.47627377" hdg="0.71937629" length="11.18748811">
                <line/>
            </geometry>
        </planView>
        <elevationProfile>
            <elevation s="0" a="0.00" b="0" c="0" d="0"/>
        </elevationProfile>
        <lateralProfile/>
        <lanes>
            <laneSection s="0">
                <center>
                    <lane id="0" type="none" level="true">
                        <link/>
                        <roadMark sOffset="0" type="solid" weight="standard" color="standard" width="0.13"/>
                    </lane>
                </center>
                <right>
                    <lane id="-1" type="driving" level="true">
                        <link/>
                        <width sOffset="0" a="3.20" b="0" c="0" d="0"/>
                        <roadMark sOffset="0" type="solid" weight="standard" color="standard" width="0.13"/>
                        <speed sOffset="0" max="22.22"/>
                    </lane>
                 </right>
            </laneSection>
        </lanes>
        <objects/>
        <signals/>
    </road>
    <road name="" length="95.06294064" id="181" junction="-1">
        <link>
            <predecessor elementType="junction" elementId="1"/>
            <successor elementType="junction" elementId="2"/>
        </link>
        <type s="0" type="town"/>
        <planView>
            <geometry s="0.00000000" x="614.47092750" y="413.62436216" hdg="0.35548937" length="17.81733924">
                <line/>
            </geometry>
            <geometry s="17.81733924" x="631.17426035" y="419.82567246" hdg="0.35548937" length="21.75477892">
                <paramPoly3 aU="0.00000000" bU="16.28326630" cU="15.26504076" dU="-10.33460477" aV="0.00000000" bV="-0.00000000" cV="-9.96178626" dV="5.34147242" pRange="normalized"/>
            </geometry>
            <geometry s="39.57211816" x="652.66969942" y="422.87764951" hdg="0.11368199" length="3.20967693">
                <paramPoly3 aU="0.00000000" bU="2.39470120" cU="2.46468411" dU="-1.72216919" aV="0.00000000" bV="0.00000000" cV="-0.74267816" dV="0.14878549" pRange="normalized"/>
            </geometry>
            <geometry s="42.78179509" x="655.85403488" y="422.64346761" hdg="-0.33510674" length="21.22504779">
                <paramPoly3 aU="0.00000000" bU="15.91757809" cU="15.88900269" dU="-10.59922605" aV="0.00000000" bV="-0.00000000" cV="-1.68709250" dV="0.86101577" pRange="normalized"/>
            </geometry>
            <geometry s="64.00684288" x="675.61006317" y="414.88887907" hdg="-0.38482936" length="0.80458055">
                <paramPoly3 aU="0.00000000" bU="0.60093469" cU="0.54174504" dU="-0.37485371" aV="0.00000000" bV="0.00000000" cV="-0.46863885" dV="0.23964370" pRange="normalized"/>
            </geometry>
            <geometry s="64.81142343" x="676.23576731" y="414.38838941" hdg="-0.75668508" length="22.14644321">
                <paramPoly3 aU="0.00000000" bU="16.60486111" cU="16.66874242" dU="-11.13388603" aV="0.00000000" bV="0.00000000" cV="1.26151949" dV="-1.32716080" pRange="normalized"/>
            </geometry>
            <geometry s="86.95786663" x="692.28884066" y="399.14141476" hdg="-0.84463073" length="8.10507400">
                <line/>
            </geometry>
        </planView>
        <elevationProfile>
            <elevation s="0" a="0.00" b="0" c="0" d="0"/>
        </elevationProfile>
        <lateralProfile/>
        <lanes>
            <laneSection s="0">
                <center>
                    <lane id="0" type="none" level="true">
                        <link/>
                        <roadMark sOffset="0" type="solid" weight="standard" color="standard" width="0.13"/>
                    </lane>
                </center>
                <right>
                    <lane id="-1" type="driving" level="true">
                        <link/>
                        <width sOffset="0" a="3.20" b="0" c="0" d="0"/>
                        <roadMark sOffset="0" type="broken" weight="standard" color="standard" width="0.13"/>
                        <speed sOffset="0" max="22.22"/>
                    </lane>
                    <lane id="-2" type="driving" level="true">
                        <link/>
                        <width sOffset="0" a="3.20" b="0" c="0" d="0"/>
                        <roadMark sOffset="0" type="solid" weight="standard" color="standard" width="0.13"/>
                        <speed sOffset="0" max="22.22"/>
                    </lane>
                 </right>
            </laneSection>
        </lanes>
        <objects/>
        <signals/>
    </road>
    <road name="" length="106.16196596" id="182" junction="-1">
        <link>
            <predecessor elementType="junction" elementId="2"/>
        </link>
        <type s="0" type="town"/>
        <planView>
            <geometry s="0.00000000" x="697.29092452" y="386.78027805" hdg="-1.39860551" length="0.94623254">
                <line/>
            </geometry>
            <geometry s="0.94623254" x="697.45305311" y="385.84803863" hdg="-1.39860551" length="22.00686407">
                <paramPoly3 aU="0.00000000" bU="16.48767704" cU="16.07014181" dU="-10.80816434" aV="0.00000000" bV="-0.00000000" cV="-6.54710627" dV="3.34869230" pRange="normalized"/>
            </geometry>
            <geometry s="22.95309661" x="698.02854942" y="363.87200334" hdg="-1.58454872" length="8.30778444">
                <paramPoly3 aU="-0.00000000" bU="6.21705970" cU="6.33229109" dU="-4.30653042" aV="0.00000000" bV="-0.00000000" cV="-0.87064305" dV="-0.00701242" pRange="normalized"/>
            </geometry>
            <geometry s="31.26088104" x="697.03762200" y="355.64203191" hdg="-1.87195488" length="21.59162283">
                <paramPoly3 aU="-0.00000000" bU="16.14346744" cU="16.80881065" dU="-11.47962857" aV="0.00000000" bV="-0.00000000" cV="0.59876399" dV="-2.09366495" pRange="normalized"/>
            </geometry>
            <geometry s="52.85250388" x="689.24063777" y="335.57921947" hdg="-2.19229892" length="53.30946208">
                <line/>
            </geometry>
        </planView>
        <elevationProfile>
            <elevation s="0" a="0.00" b="0" c="0" d="0"/>
        </elevationProfile>
        <lateralProfile/>
        <lanes>
            <laneSection s="0">
                <center>
                    <lane id="0" type="none" level="true">
                        <link/>
                        <roadMark sOffset="0" type="solid" weight="standard" color="standard" width="0.13"/>
                    </lane>
                </center>
                <right>
                    <lane id="-1" type="driving" level="true">
                        <link/>
                        <width sOffset="0" a="3.20" b="0" c="0" d="0"/>
                        <roadMark sOffset="0" type="solid" weight="standard" color="standard" width="0.13"/>
                        <speed sOffset="0" max="22.22"/>
                    </lane>
                 </right>
            </laneSection>
        </lanes>
        <objects/>
        <signals/>
    </road>
    <road name="Highbury Avenue South" length="636.10150626" id="183" junction="-1">
        <link>
            <successor elementType="junction" elementId="3"/>
        </link>
        <type s="0" type="town"/>
        <planView>
            <geometry s="0.00000000" x="627.30247864" y="89.35512245" hdg="1.78730090" length="179.81452848">
                <line/>
            </geometry>
            <geometry s="179.81452848" x="588.67523959" y="264.97175337" hdg="1.78730090" length="27.77975007">
                <paramPoly3 aU="0.00000000" bU="20.83476334" cU="20.83476333" dU="-13.89015777" aV="-0.00000000" bV="-0.00000000" cV="-0.19861176" dV="0.06620542" pRange="normalized"/>
            </geometry>
            <geometry s="207.59427855" x="582.83707080" y="292.13103637" hdg="1.77776826" length="324.89174601">
                <line/>
            </geometry>
            <geometry s="532.48602456" x="516.07265894" y="610.08883221" hdg="1.77776826" length="27.78000000">
                <paramPoly3 aU="0.00000000" bU="20.83500000" cU="20.83500000" dU="-13.89000000" aV="-0.00000000" bV="-0.00000000" cV="0.00069029" dV="-0.00023010" pRange="normalized"/>
            </geometry>
            <geometry s="560.26602456" x="510.36349056" y="637.27584743" hdg="1.77780139" length="75.83548170">
                <line/>
            </geometry>
        </planView>
        <elevationProfile>
            <elevation s="0" a="0.00" b="0" c="0" d="0"/>
        </elevationProfile>
        <lateralProfile/>
        <lanes>
            <laneSection s="0">
                <center>
                    <lane id="0" type="none" level="true">
                        <link/>
                        <roadMark sOffset="0" type="solid" weight="standard" color="standard" width="0.13"/>
                    </lane>
                </center>
                <right>
                    <lane id="-1" type="driving" level="true">
                        <link/>
                        <width sOffset="0" a="3.20" b="0" c="0" d="0"/>
                        <roadMark sOffset="0" type="broken" weight="standard" color="standard" width="0.13"/>
                        <speed sOffset="0" max="27.78"/>
                    </lane>
                    <lane id="-2" type="driving" level="true">
                        <link/>
                        <width sOffset="0" a="3.20" b="0" c="0" d="0"/>
                        <roadMark sOffset="0" type="solid" weight="standard" color="standard" width="0.13"/>
                        <speed sOffset="0" max="27.78"/>
                    </lane>
                 </right>
            </laneSection>
        </lanes>
        <objects/>
        <signals/>
    </road>
    <road name="Highbury Avenue South" length="987.37438966" id="184" junction="-1">
        <link>
            <predecessor elementType="junction" elementId="4"/>
            <successor elementType="junction" elementId="5"/>
        </link>
        <type s="0" type="town"/>
        <planView>
            <geometry s="0.00000000" x="250.62354531" y="1777.62725970" hdg="-1.36710750" length="305.25726329">
                <line/>
            </geometry>
            <geometry s="305.25726329" x="312.37198293" y="1478.68056337" hdg="-1.36710750" length="27.77987874">
                <paramPoly3 aU="0.00000000" bU="20.83488518" cU="20.83488518" dU="-13.89007654" aV="0.00000000" bV="-0.00000000" cV="0.13834043" dV="-0.04611399" pRange="normalized"/>
            </geometry>
            <geometry s="333.03714203" x="318.08167011" y="1451.49381354" hdg="-1.36046767" length="654.33724762">
                <line/>
            </geometry>
        </planView>
        <elevationProfile>
            <elevation s="0" a="0.00" b="0" c="0" d="0"/>
        </elevationProfile>
        <lateralProfile/>
        <lanes>
            <laneSection s="0">
                <center>
                    <lane id="0" type="none" level="true">
                        <link/>
                        <roadMark sOffset="0" type="solid" weight="standard" color="standard" width="0.13"/>
                    </lane>
                </center>
                <right>
                    <lane id="-1" type="driving" level="true">
                        <link/>
                        <width sOffset="0" a="3.20" b="0" c="0" d="0"/>
                        <roadMark sOffset="0" type="broken" weight="standard" color="standard" width="0.13"/>
                        <speed sOffset="0" max="27.78"/>
                    </lane>
                    <lane id="-2" type="driving" level="true">
                        <link/>
                        <width sOffset="0" a="3.20" b="0" c="0" d="0"/>
                        <roadMark sOffset="0" type="solid" weight="standard" color="standard" width="0.13"/>
                        <speed sOffset="0" max="27.78"/>
                    </lane>
                 </right>
            </laneSection>
        </lanes>
        <objects/>
        <signals/>
    </road>
    <road name="Highbury Avenue South" length="94.45505572" id="185" junction="-1">
        <link>
            <predecessor elementType="junction" elementId="5"/>
            <successor elementType="junction" elementId="6"/>
        </link>
        <type s="0" type="town"/>
        <planView>
            <geometry s="0.00000000" x="456.36866582" y="803.75367950" hdg="-1.36045727" length="94.45505572">
                <line/>
            </geometry>
        </planView>
        <elevationProfile>
            <elevation s="0" a="0.00" b="0" c="0" d="0"/>
        </elevationProfile>
        <lateralProfile/>
        <lanes>
            <laneSection s="0">
                <center>
                    <lane id="0" type="none" level="true">
                        <link/>
                        <roadMark sOffset="0" type="solid" weight="standard" color="standard" width="0.13"/>
                    </lane>
                </center>
                <right>
                    <lane id="-1" type="driving" level="true">
                        <link/>
                        <width sOffset="0" a="3.20" b="0" c="0" d="0"/>
                        <roadMark sOffset="0" type="broken" weight="standard" color="standard" width="0.13"/>
                        <speed sOffset="0" max="27.78"/>
                    </lane>
                    <lane id="-2" type="driving" level="true">
                        <link/>
                        <width sOffset="0" a="3.20" b="0" c="0" d="0"/>
                        <roadMark sOffset="0" type="broken" weight="standard" color="standard" width="0.13"/>
                        <speed sOffset="0" max="27.78"/>
                    </lane>
                    <lane id="-3" type="driving" level="true">
                        <link/>
                        <width sOffset="0" a="3.20" b="0" c="0" d="0"/>
                        <roadMark sOffset="0" type="solid" weight="standard" color="standard" width="0.13"/>
                        <speed sOffset="0" max="27.78"/>
                    </lane>
                 </right>
            </laneSection>
        </lanes>
        <objects/>
        <signals/>
    </road>
    <road name="Highbury Avenue South" length="94.34609214" id="186" junction="-1">
        <link>
            <predecessor elementType="junction" elementId="7"/>
            <successor elementType="junction" elementId="4"/>
        </link>
        <type s="0" type="town"/>
        <planView>
            <geometry s="0.00000000" x="229.92578816" y="1877.85822526" hdg="-1.36720380" length="94.34609214">
                <line/>
            </geometry>
        </planView>
        <elevationProfile>
            <elevation s="0" a="0.00" b="0" c="0" d="0"/>
        </elevationProfile>
        <lateralProfile/>
        <lanes>
            <laneSection s="0">
                <center>
                    <lane id="0" type="none" level="true">
                        <link/>
                        <roadMark sOffset="0" type="solid" weight="standard" color="standard" width="0.13"/>
                    </lane>
                </center>
                <right>
                    <lane id="-1" type="driving" level="true">
                        <link/>
                        <width sOffset="0" a="3.20" b="0" c="0" d="0"/>
                        <roadMark sOffset="0" type="broken" weight="standard" color="standard" width="0.13"/>
                        <speed sOffset="0" max="27.78"/>
                    </lane>
                    <lane id="-2" type="driving" level="true">
                        <link/>
                        <width sOffset="0" a="3.20" b="0" c="0" d="0"/>
                        <roadMark sOffset="0" type="broken" weight="standard" color="standard" width="0.13"/>
                        <speed sOffset="0" max="27.78"/>
                    </lane>
                    <lane id="-3" type="driving" level="true">
                        <link/>
                        <width sOffset="0" a="3.20" b="0" c="0" d="0"/>
                        <roadMark sOffset="0" type="solid" weight="standard" color="standard" width="0.13"/>
                        <speed sOffset="0" max="27.78"/>
                    </lane>
                 </right>
            </laneSection>
        </lanes>
        <objects/>
        <signals/>
    </road>
    <road name="Highbury Avenue South" length="723.85278320" id="187" junction="-1">
        <link>
            <predecessor elementType="junction" elementId="6"/>
        </link>
        <type s="0" type="town"/>
        <planView>
            <geometry s="0.00000000" x="476.78328775" y="708.28650476" hdg="-1.33915375" length="75.75320439">
                <line/>
            </geometry>
            <geometry s="75.75320439" x="494.17444619" y="634.55662219" hdg="-1.33915375" length="27.77844503">
                <paramPoly3 aU="0.00000000" bU="20.83352761" cU="20.83352740" dU="-13.89098125" aV="0.00000000" bV="0.00000000" cV="-0.49538859" dV="0.16515287" pRange="normalized"/>
            </geometry>
            <geometry s="103.53164942" x="500.22976572" y="607.44661602" hdg="-1.36293106" length="322.54330549">
                <line/>
            </geometry>
            <geometry s="426.07495490" x="566.79354120" y="291.84647707" hdg="-1.36293106" length="27.77997095">
                <paramPoly3 aU="0.00000000" bU="20.83497249" cU="20.83497249" dU="-13.89001834" aV="0.00000000" bV="0.00000000" cV="0.06771804" dV="-0.02257274" pRange="normalized"/>
            </geometry>
            <geometry s="453.85492585" x="572.57070238" y="264.67386640" hdg="-1.35968085" length="269.99785735">
                <line/>
            </geometry>
        </planView>
        <elevationProfile>
            <elevation s="0" a="0.00" b="0" c="0" d="0"/>
        </elevationProfile>
        <lateralProfile/>
        <lanes>
            <laneSection s="0">
                <center>
                    <lane id="0" type="none" level="true">
                        <link/>
                        <roadMark sOffset="0" type="solid" weight="standard" color="standard" width="0.13"/>
                    </lane>
                </center>
                <right>
                    <lane id="-1" type="driving" level="true">
                        <link/>
                        <width sOffset="0" a="3.20" b="0" c="0" d="0"/>
                        <roadMark sOffset="0" type="broken" weight="standard" color="standard" width="0.13"/>
                        <speed sOffset="0" max="27.78"/>
                    </lane>
                    <lane id="-2" type="driving" level="true">
                        <link/>
                        <width sOffset="0" a="3.20" b="0" c="0" d="0"/>
                        <roadMark sOffset="0" type="solid" weight="standard" color="standard" width="0.13"/>
                        <speed sOffset="0" max="27.78"/>
                    </lane>
                 </right>
            </laneSection>
        </lanes>
        <objects/>
        <signals/>
    </road>
    <road name="" length="303.18563822" id="188" junction="-1">
        <link>
            <predecessor elementType="junction" elementId="8"/>
        </link>
        <type s="0" type="town"/>
        <planView>
            <geometry s="0.00000000" x="244.13625588" y="1892.84217200" hdg="1.78849852" length="303.18563822">
                <line/>
            </geometry>
        </planView>
        <elevationProfile>
            <elevation s="0" a="0.00" b="0" c="0" d="0"/>
        </elevationProfile>
        <lateralProfile/>
        <lanes>
            <laneSection s="0">
                <center>
                    <lane id="0" type="none" level="true">
                        <link/>
                        <roadMark sOffset="0" type="solid" weight="standard" color="standard" width="0.13"/>
                    </lane>
                </center>
                <right>
                    <lane id="-1" type="driving" level="true">
                        <link/>
                        <width sOffset="0" a="3.20" b="0" c="0" d="0"/>
                        <roadMark sOffset="0" type="broken" weight="standard" color="standard" width="0.13"/>
                        <speed sOffset="0" max="27.78"/>
                    </lane>
                    <lane id="-2" type="driving" level="true">
                        <link/>
                        <width sOffset="0" a="3.20" b="0" c="0" d="0"/>
                        <roadMark sOffset="0" type="solid" weight="standard" color="standard" width="0.13"/>
                        <speed sOffset="0" max="27.78"/>
                    </lane>
                 </right>
            </laneSection>
        </lanes>
        <objects/>
        <signals/>
    </road>
    <road name="" length="446.74280389" id="189" junction="-1">
        <link>
            <successor elementType="junction" elementId="3"/>
        </link>
        <type s="0" type="town"/>
        <planView>
            <geometry s="0.00000000" x="743.14302072" y="359.82711595" hdg="2.30574966" length="62.69821050">
                <line/>
            </geometry>
            <geometry s="62.69821050" x="701.10057678" y="406.34053882" hdg="2.30574966" length="22.03216540">
                <paramPoly3 aU="0.00000000" bU="16.48780195" cU="16.48407375" dU="-11.22189164" aV="-0.00000000" bV="0.00000000" cV="4.84697161" dV="-1.64965411" pRange="normalized"/>
            </geometry>
            <geometry s="84.73037591" x="684.14410134" y="420.33205720" hdg="2.59766530" length="57.41687966">
                <line/>
            </geometry>
            <geometry s="142.14725556" x="635.01346045" y="450.04532352" hdg="2.59766530" length="22.10778258">
                <paramPoly3 aU="0.00000000" bU="16.55897802" cU="16.55763759" dU="-11.17844155" aV="-0.00000000" bV="-0.00000000" cV="-3.75349802" dV="1.26698509" pRange="normalized"/>
            </geometry>
            <geometry s="164.25503814" x="617.52811230" y="463.52600702" hdg="2.37194490" length="68.96736823">
                <line/>
            </geometry>
            <geometry s="233.22240637" x="567.99879415" y="511.51917865" hdg="2.37194490" length="21.88550658">
                <paramPoly3 aU="0.00000000" bU="16.35035656" cU="16.33869963" dU="-11.30018454" aV="-0.00000000" bV="0.00000000" cV="-6.44380655" dV="2.22754070" pRange="normalized"/>
            </geometry>
            <geometry s="255.10791295" x="555.57227592" y="529.43125203" hdg="1.98268707" length="38.82689285">
                <line/>
            </geometry>
            <geometry s="293.93480580" x="540.02821468" y="565.01087778" hdg="1.98268707" length="22.15906934">
                <paramPoly3 aU="0.00000000" bU="16.60737426" cU="16.60697711" dU="-11.14775433" aV="-0.00000000" bV="0.00000000" cV="-2.76933163" dV="0.92947258" pRange="normalized"/>
            </geometry>
            <geometry s="316.09387514" x="532.87999811" y="585.96852044" hdg="1.81631676" length="130.64892874">
                <line/>
            </geometry>
        </planView>
        <elevationProfile>
            <elevation s="0" a="0.00" b="0" c="0" d="0"/>
        </elevationProfile>
        <lateralProfile/>
        <lanes>
            <laneSection s="0">
                <center>
                    <lane id="0" type="none" level="true">
                        <link/>
                        <roadMark sOffset="0" type="solid" weight="standard" color="standard" width="0.13"/>
                    </lane>
                </center>
                <right>
                    <lane id="-1" type="driving" level="true">
                        <link/>
                        <width sOffset="0" a="3.20" b="0" c="0" d="0"/>
                        <roadMark sOffset="0" type="solid" weight="standard" color="standard" width="0.13"/>
                        <speed sOffset="0" max="22.22"/>
                    </lane>
                 </right>
            </laneSection>
        </lanes>
        <objects/>
        <signals/>
    </road>
    <road name="" length="504.31632700" id="190" junction="-1">
        <link>
            <predecessor elementType="junction" elementId="6"/>
        </link>
        <type s="0" type="town"/>
        <planView>
            <geometry s="0.00000000" x="470.38791906" y="706.85435809" hdg="-1.43551071" length="171.64056360">
                <line/>
            </geometry>
            <geometry s="171.64056360" x="493.53765267" y="536.78210019" hdg="-1.43551071" length="22.13934249">
                <paramPoly3 aU="0.00000000" bU="16.58874751" cU="16.58805290" dU="-11.15967518" aV="0.00000000" bV="0.00000000" cV="-3.18469781" dV="1.07123631" pRange="normalized"/>
            </geometry>
            <geometry s="193.77990609" x="494.41302508" y="514.68109918" hdg="-1.62690770" length="49.69069152">
                <line/>
            </geometry>
            <geometry s="243.47059761" x="491.62627522" y="465.06861236" hdg="-1.62690770" length="22.00041933">
                <paramPoly3 aU="-0.00000000" bU="16.45798350" cU="16.45290418" dU="-11.23950286" aV="0.00000000" bV="-0.00000000" cV="-5.23636817" dV="1.78828890" pRange="normalized"/>
            </geometry>
            <geometry s="265.47101694" x="486.96824956" y="443.62470955" hdg="-1.94247748" length="46.23070306">
                <line/>
            </geometry>
            <geometry s="311.70171999" x="470.17807622" y="400.55072687" hdg="-1.94247748" length="22.21848375">
                <paramPoly3 aU="-0.00000000" bU="16.66356428" cU="16.66356403" dU="-11.11095673" aV="0.00000000" bV="-0.00000000" cV="-0.43749499" dV="0.14585679" pRange="normalized"/>
            </geometry>
            <geometry s="333.92020374" x="461.83783120" y="379.95743560" hdg="-1.96873056" length="102.51635637">
                <line/>
            </geometry>
            <geometry s="436.43656012" x="422.11122428" y="285.45135099" hdg="-1.96873056" length="22.03623282">