<?xml version="1.0" encoding="UTF-8"?>

<!-- generated on 2023-09-26 19:37:53 by Eclipse SUMO sumo Version 1.18.0
-->

<configuration xmlns:xsi="http://www.w3.org/2001/XMLSchema-instance" xsi:noNamespaceSchemaLocation="http://sumo.dlr.de/xsd/sumoConfiguration.xsd">

    <input>
        <net-file value="new.net.xml"/>
        <route-files value="new.rou1.xml"/>
    </input>
    <time>
        <begin value="0"/>
        <end value="500"/>
    </time>
</configuration>
