<?xml version="1.0" encoding="UTF-8"?>

<!-- generated on 2023-09-26 13:29:46 by Eclipse SUMO netedit Version 1.18.0
-->

<routes xmlns:xsi="http://www.w3.org/2001/XMLSchema-instance" xsi:noNamespaceSchemaLocation="http://sumo.dlr.de/xsd/routes_file.xsd">
    <!-- VTypes -->
    <vType id="col_cfm" guiShape="passenger" color="blue" tau="0.09"/>
    <vType id="col_veh_ego" minGap="2.00" guiShape="passenger" color="red" jmDriveAfterRedTime="10" jmDriveRedSpeed="5" tau="0.1"/>
    <!-- Routes -->
    <route id="r_0" edges="-E1 E3"/>
    <route id="r_1" edges="E0 E1"/>
    <route id="r_2" edges="-E3 -E2"/>
    <route id="r_3" edges="-E1 -E0"/>
    <route id="r_4" edges="E0 -E2"/>
    <route id="r_5" edges="E2 E3"/>
    <route id="r_6" edges="E2 -E0"/>
    <route id="r_7" edges="-E3 E1"/>
    <!-- Vehicles, persons and containers (sorted by depart) -->
    <vehicle id="v_0" depart="0.00" departLane="0" departPos="0.00" route="r_1"/>
    <vehicle id="v_1" type="col_veh_ego" depart="0.00" departLane="0" departPos="0.00" arrivalLane="0" route="r_0"/>
    <vehicle id="v_6" depart="0.00" departLane="2" route="r_1"/>
    <vehicle id="v_4" type="col_cfm" depart="0.40" departLane="1" arrivalLane="2" route="r_0"/>
    <vehicle id="v_2" depart="0.55" departLane="0" departPos="0.00" arrivalLane="0" route="r_2"/>
    <vehicle id="v_9" depart="5.00" departLane="2" route="r_6"/>
    <vehicle id="v_10" depart="10.00" departLane="1" route="r_7"/>
    <vehicle id="v_8" depart="10.00" departLane="0" route="r_5"/>
    <vehicle id="v_3" type="DEFAULT_TAXITYPE" depart="15.00" departLane="2" route="r_3">
        <stop lane="-E1_2" startPos="58.74" endPos="68.74" duration="25.00"/>
    </vehicle>
    <vehicle id="v_5" depart="15.00" departLane="1" route="r_4"/>
    <vehicle id="v_7" depart="20.00" departLane="0" route="r_3">
        <stop lane="-E1_0" startPos="73.27" endPos="83.27" duration="22.50"/>
    </vehicle>
</routes>
