<?xml version="1.0" encoding="UTF-8"?>

<!-- generated on 2023-09-17 13:16:19 by Eclipse SUMO netedit Version 1.18.0
-->

<routes xmlns:xsi="http://www.w3.org/2001/XMLSchema-instance" xsi:noNamespaceSchemaLocation="http://sumo.dlr.de/xsd/routes_file.xsd">
    <!-- VTypes -->
    <vType id="DEFAULT_VEHTYPE" impatience="0.50" laneChangeModel="LC2013" lcAccelLat="20" lcAssertive="1" lcPushy="1" lcImpatience="1" lcSigma = "0.7" lcSpeedGain = "5" lcStrategic="0" lcCooperative = "0.2" lcOvertakeRight="1" jmSigmaMinor="1" jmIgnoreFoeSpeed="20" jmTimegapMinor="0.3" jmIgnoreJunctionFoeProb = "1" jmIgnoreKeepClearTime = "1" carFollowModel="EIDM" sigma="0.5" tau="0.01" sigmagap="0.5" sigmaerror="0.3" decel="26" emergencyDecel="20"/>
    <!-- Vehicles, persons and containers (sorted by depart) -->
    <flow id="f_0" begin="0.00" from="E0" to="E2" end="600.00" number="500" departPos="random" departLane = "free" departPosLat="random_free" arrivalPos="random" arrivalLane = "random"/>
    <flow id="f_1" begin="0.00" from="E5" to="E2" end="600.00" number="500" departPos="random" departLane = "free" departPosLat="random_free" arrivalPos="random" arrivalLane = "random"/>
    <flow id="f_2" begin="0.00" personNumber="4" from="E0" to="E6" end="600.00" vehsPerHour="1000.00" departPos="random" departLane = "free" departPosLat="random_free" arrivalPos="random" arrivalLane = "random"/>
    <flow id="f_3" begin="0.00" from="-E2" to="-E0" end="600.00" number="500" departPos="random" departLane = "free" departPosLat="random_free" arrivalPos="random" arrivalLane = "random"/>
    <flow id="f_4" begin="0.00" from="E7" to="-E0" end="600.00" number="500" departPos="random" departLane = "free" departPosLat="random_free" arrivalPos="random" arrivalLane = "random"/>
    <flow id="f_5" begin="0.00" from="-E2" to="E8" end="600.00" number="500" departPos="random" departLane = "free" departPosLat="random_free" arrivalPos="random" arrivalLane = "random"/>
</routes>
