<?xml version="1.0" encoding="UTF-8"?>

<!-- generated on 2023-09-27 18:15:10 by Eclipse SUMO netedit Version 1.18.0
<configuration xmlns:xsi="http://www.w3.org/2001/XMLSchema-instance" xsi:noNamespaceSchemaLocation="http://sumo.dlr.de/xsd/neteditConfiguration.xsd">

    <input>
        <sumocfg-file value="C:\Users\saiko\OneDrive\Desktop\699\Task-2\New.sumocfg"/>
        <route-files value="C:\Users\saiko\OneDrive\Desktop\699\Task-2\New.rou.xml"/>
        <sumo-net-file value="C:\Users\saiko\OneDrive\Desktop\699\Task-2\Highway_route.net.xml"/>
    </input>

    <output>
        <output-file value="C:\Users\saiko\OneDrive\Desktop\699\Task-2\Highway_route.net.xml"/>
    </output>

    <processing>
        <geometry.min-radius.fix.railways value="false"/>
        <geometry.max-grade.fix value="false"/>
        <offset.disable-normalization value="true"/>
        <lefthand value="0"/>
    </processing>

    <junctions>
        <no-turnarounds value="true"/>
        <junctions.corner-detail value="5"/>
        <junctions.limit-turn-speed value="5.50"/>
        <rectangular-lane-cut value="0"/>
    </junctions>

    <pedestrian>
        <walkingareas value="0"/>
    </pedestrian>

</configuration>
-->

<net version="1.16" junctionCornerDetail="5" limitTurnSpeed="5.50" xmlns:xsi="http://www.w3.org/2001/XMLSchema-instance" xsi:noNamespaceSchemaLocation="http://sumo.dlr.de/xsd/net_file.xsd">

    <location netOffset="0.00,0.00" convBoundary="-100.00,-100.00,400.00,100.00" origBoundary="-10000000000.00,-10000000000.00,10000000000.00,10000000000.00" projParameter="!"/>

    <edge id=":J1_0" function="internal">
        <lane id=":J1_0_0" index="0" speed="25.00" length="4.30" shape="-7.87,8.00 -11.78,4.80"/>
        <lane id=":J1_0_1" index="1" speed="25.00" length="4.30" shape="-7.87,4.80 -11.78,4.80"/>
        <lane id=":J1_0_2" index="2" speed="25.00" length="4.30" shape="-7.87,1.60 -11.78,1.60"/>
    </edge>
    <edge id=":J1_3" function="internal">
        <lane id=":J1_3_0" index="0" speed="22.50" length="3.88" shape="-11.74,-8.12 -7.87,-8.00"/>
    </edge>
    <edge id=":J1_4" function="internal">
        <lane id=":J1_4_0" index="0" speed="25.00" length="3.91" shape="-11.78,-4.80 -7.87,-4.80"/>
        <lane id=":J1_4_1" index="1" speed="25.00" length="3.91" shape="-11.78,-1.60 -7.87,-1.60"/>
    </edge>
    <edge id=":J2_0" function="internal">
        <lane id=":J2_0_0" index="0" speed="22.50" length="9.06" shape="91.90,8.00 89.37,8.53 87.79,9.67 86.21,10.81 83.68,11.29"/>
    </edge>
    <edge id=":J2_1" function="internal">
        <lane id=":J2_1_0" index="0" speed="30.00" length="9.15" shape="91.90,8.00 82.75,8.00"/>
        <lane id=":J2_1_1" index="1" speed="30.00" length="9.15" shape="91.90,4.80 82.75,4.80"/>
        <lane id=":J2_1_2" index="2" speed="30.00" length="9.15" shape="91.90,1.60 82.75,1.60"/>
    </edge>
    <edge id=":J2_4" function="internal">
        <lane id=":J2_4_0" index="0" speed="30.00" length="9.15" shape="82.75,-8.00 91.90,-8.00"/>
        <lane id=":J2_4_1" index="1" speed="30.00" length="9.15" shape="82.75,-4.80 91.90,-4.80"/>
        <lane id=":J2_4_2" index="2" speed="30.00" length="9.15" shape="82.75,-1.60 91.90,-1.60"/>
    </edge>
    <edge id=":J3_0" function="internal">
        <lane id=":J3_0_0" index="0" speed="22.50" length="17.82" shape="231.01,12.82 227.69,11.17 224.15,9.61 219.80,8.45 214.07,8.00"/>
    </edge>
    <edge id=":J3_1" function="internal">
        <lane id=":J3_1_0" index="0" speed="30.00" length="17.84" shape="231.91,8.00 214.07,8.00"/>
        <lane id=":J3_1_1" index="1" speed="30.00" length="17.84" shape="231.91,4.80 214.07,4.80"/>
        <lane id=":J3_1_2" index="2" speed="30.00" length="17.84" shape="231.91,1.60 214.07,1.60"/>
    </edge>
    <edge id=":J3_4" function="internal">
        <lane id=":J3_4_0" index="0" speed="30.00" length="17.84" shape="214.07,-8.00 231.91,-8.00"/>
        <lane id=":J3_4_1" index="1" speed="30.00" length="17.84" shape="214.07,-4.80 231.91,-4.80"/>
        <lane id=":J3_4_2" index="2" speed="30.00" length="17.84" shape="214.07,-1.60 231.91,-1.60"/>
    </edge>
    <edge id=":J4_0" function="internal">
        <lane id=":J4_0_0" index="0" speed="25.00" length="6.71" shape="306.38,4.80 304.48,5.30 303.37,6.40 302.25,7.50 300.35,8.00"/>
        <lane id=":J4_0_1" index="1" speed="25.00" length="6.71" shape="306.38,1.60 304.48,2.10 303.37,3.20 302.25,4.30 300.35,4.80"/>
        <lane id=":J4_0_2" index="2" speed="25.00" length="6.71" shape="306.38,1.60 300.35,1.60"/>
    </edge>
    <edge id=":J4_3" function="internal">
        <lane id=":J4_3_0" index="0" speed="22.50" length="5.97" shape="300.35,-8.00 306.33,-8.04"/>
    </edge>
    <edge id=":J4_4" function="internal">
        <lane id=":J4_4_0" index="0" speed="25.00" length="6.02" shape="300.35,-4.80 306.38,-4.80"/>
        <lane id=":J4_4_1" index="1" speed="25.00" length="6.02" shape="300.35,-1.60 306.38,-1.60"/>
    </edge>

    <edge id="-E0" from="J1" to="J0" priority="-1">
        <lane id="-E0_0" index="0" speed="20.00" length="88.22" shape="-11.78,4.80 -100.00,4.80"/>
        <lane id="-E0_1" index="1" speed="20.00" length="88.22" shape="-11.78,1.60 -100.00,1.60"/>
    </edge>
    <edge id="-E1" from="J3" to="J2" priority="-1">
        <lane id="-E1_0" index="0" speed="30.00" length="122.17" shape="214.07,8.00 91.90,8.00"/>
        <lane id="-E1_1" index="1" speed="30.00" length="122.17" shape="214.07,4.80 91.90,4.80"/>
        <lane id="-E1_2" index="2" speed="30.00" length="122.17" shape="214.07,1.60 91.90,1.60"/>
    </edge>
    <edge id="-E2" from="J5" to="J4" priority="-1">
        <lane id="-E2_0" index="0" speed="20.00" length="93.62" shape="400.00,4.80 306.38,4.80"/>
        <lane id="-E2_1" index="1" speed="20.00" length="93.62" shape="400.00,1.60 306.38,1.60"/>
    </edge>
    <edge id="-E3" from="J4" to="J3" priority="-1">
        <lane id="-E3_0" index="0" speed="30.00" length="68.44" shape="300.35,8.00 231.91,8.00"/>
        <lane id="-E3_1" index="1" speed="30.00" length="68.44" shape="300.35,4.80 231.91,4.80"/>
        <lane id="-E3_2" index="2" speed="30.00" length="68.44" shape="300.35,1.60 231.91,1.60"/>
    </edge>
    <edge id="-E4" from="J2" to="J1" priority="-1">
        <lane id="-E4_0" index="0" speed="30.00" length="90.62" shape="82.75,8.00 -7.87,8.00"/>
        <lane id="-E4_1" index="1" speed="30.00" length="90.62" shape="82.75,4.80 -7.87,4.80"/>
        <lane id="-E4_2" index="2" speed="30.00" length="90.62" shape="82.75,1.60 -7.87,1.60"/>
    </edge>
    <edge id="E0" from="J0" to="J1" priority="-1">
        <lane id="E0_0" index="0" speed="20.00" length="88.22" shape="-100.00,-4.80 -11.78,-4.80"/>
        <lane id="E0_1" index="1" speed="20.00" length="88.22" shape="-100.00,-1.60 -11.78,-1.60"/>
    </edge>
    <edge id="E1" from="J2" to="J3" priority="-1">
        <lane id="E1_0" index="0" speed="30.00" length="122.17" shape="91.90,-8.00 214.07,-8.00"/>
        <lane id="E1_1" index="1" speed="30.00" length="122.17" shape="91.90,-4.80 214.07,-4.80"/>
        <lane id="E1_2" index="2" speed="30.00" length="122.17" shape="91.90,-1.60 214.07,-1.60"/>
    </edge>
    <edge id="E2" from="J4" to="J5" priority="-1">
        <lane id="E2_0" index="0" speed="20.00" length="93.62" shape="306.38,-4.80 400.00,-4.80"/>
        <lane id="E2_1" index="1" speed="20.00" length="93.62" shape="306.38,-1.60 400.00,-1.60"/>
    </edge>
    <edge id="E3" from="J3" to="J4" priority="-1">
        <lane id="E3_0" index="0" speed="30.00" length="68.44" shape="231.91,-8.00 300.35,-8.00"/>
        <lane id="E3_1" index="1" speed="30.00" length="68.44" shape="231.91,-4.80 300.35,-4.80"/>
        <lane id="E3_2" index="2" speed="30.00" length="68.44" shape="231.91,-1.60 300.35,-1.60"/>
    </edge>
    <edge id="E4" from="J1" to="J2" priority="-1">
        <lane id="E4_0" index="0" speed="30.00" length="90.62" shape="-7.87,-8.00 82.75,-8.00"/>
        <lane id="E4_1" index="1" speed="30.00" length="90.62" shape="-7.87,-4.80 82.75,-4.80"/>
        <lane id="E4_2" index="2" speed="30.00" length="90.62" shape="-7.87,-1.60 82.75,-1.60"/>
    </edge>
    <edge id="E5" from="J6" to="J1" priority="-1" shape="-100.00,-100.00 -45.50,-17.26 -36.37,-9.76 -30.83,-6.50 -18.70,-6.46 -10.49,-6.53 0.00,0.00">
        <lane id="E5_0" index="0" speed="15.00" length="134.80" shape="-98.66,-100.88 -44.30,-18.34 -35.45,-11.08 -30.39,-8.10 -18.70,-8.06 -11.74,-8.12"/>
    </edge>
    <edge id="E6" from="J4" to="J7" priority="-1" shape="300.00,0.00 304.28,-6.48 310.46,-6.37 314.49,-6.37 320.54,-9.05 327.86,-13.71 400.00,-100.00">
        <lane id="E6_0" index="0" speed="15.00" length="134.52" shape="306.33,-8.04 310.48,-7.97 314.15,-7.97 319.78,-10.46 326.79,-14.93 398.77,-101.03"/>
    </edge>
    <edge id="E7" from="J8" to="J3" priority="-1" shape="300.00,100.00 238.13,14.41 228.00,9.63 200.00,0.00">
        <lane id="E7_0" index="0" speed="15.00" length="111.90" shape="298.70,100.94 237.07,15.68 231.01,12.82"/>
    </edge>
    <edge id="E8" from="J2" to="J9" priority="-1" shape="100.00,0.00 84.09,9.70 76.42,9.57 68.83,10.80 63.29,14.48 0.00,100.00">
        <lane id="E8_0" index="0" speed="15.00" length="126.49" shape="83.68,11.29 76.54,11.17 69.43,12.32 64.41,15.66 1.29,100.95"/>
    </edge>

    <junction id="J0" type="dead_end" x="-100.00" y="0.00" incLanes="-E0_0 -E0_1" intLanes="" shape="-100.00,0.00 -100.00,6.40 -100.00,0.00"/>
    <junction id="J1" type="priority" x="0.00" y="0.00" incLanes="-E4_0 -E4_1 -E4_2 E5_0 E0_0 E0_1" intLanes=":J1_0_0 :J1_0_1 :J1_0_2 :J1_3_0 :J1_4_0 :J1_4_1" shape="-7.87,9.60 -7.87,-9.60 -10.83,-9.73 -12.66,-6.51 -11.78,-6.40 -11.78,6.40">
        <request index="0" response="000010" foes="000010" cont="0"/>
        <request index="1" response="000000" foes="000001" cont="0"/>
        <request index="2" response="000000" foes="000000" cont="0"/>
        <request index="3" response="000000" foes="000000" cont="0"/>
        <request index="4" response="000000" foes="000000" cont="0"/>
        <request index="5" response="000000" foes="000000" cont="0"/>
    </junction>
    <junction id="J2" type="priority" x="100.00" y="0.00" incLanes="-E1_0 -E1_1 -E1_2 E4_0 E4_1 E4_2" intLanes=":J2_0_0 :J2_1_0 :J2_1_1 :J2_1_2 :J2_4_0 :J2_4_1 :J2_4_2" shape="91.90,9.60 91.90,-9.60 82.75,-9.60 82.75,9.60 84.58,12.91 87.37,12.08 88.24,11.28 89.11,10.47 90.24,9.85">
        <request index="0" response="0000000" foes="0000000" cont="0"/>
        <request index="1" response="0000000" foes="0000000" cont="0"/>
        <request index="2" response="0000000" foes="0000000" cont="0"/>
        <request index="3" response="0000000" foes="0000000" cont="0"/>
        <request index="4" response="0000000" foes="0000000" cont="0"/>
        <request index="5" response="0000000" foes="0000000" cont="0"/>
        <request index="6" response="0000000" foes="0000000" cont="0"/>
    </junction>
    <junction id="J3" type="priority" x="200.00" y="0.00" incLanes="E7_0 -E3_0 -E3_1 -E3_2 E1_0 E1_1 E1_2" intLanes=":J3_0_0 :J3_1_0 :J3_1_1 :J3_1_2 :J3_4_0 :J3_4_1 :J3_4_2" shape="230.49,14.34 231.53,11.30 231.91,9.60 231.91,-9.60 214.07,-9.60 214.07,9.60 217.72,9.70 220.41,10.02 222.59,10.60 224.70,11.49 227.18,12.72">
        <request index="0" response="0001110" foes="0001110" cont="0"/>
        <request index="1" response="0000000" foes="0000001" cont="0"/>
        <request index="2" response="0000000" foes="0000001" cont="0"/>
        <request index="3" response="0000000" foes="0000001" cont="0"/>
        <request index="4" response="0000000" foes="0000000" cont="0"/>
        <request index="5" response="0000000" foes="0000000" cont="0"/>
        <request index="6" response="0000000" foes="0000000" cont="0"/>
    </junction>
    <junction id="J4" type="priority" x="300.00" y="0.00" incLanes="-E2_0 -E2_1 E3_0 E3_1 E3_2" intLanes=":J4_0_0 :J4_0_1 :J4_0_2 :J4_3_0 :J4_4_0 :J4_4_1" shape="306.38,6.40 306.38,-6.40 306.25,-6.41 306.59,-6.41 307.06,-6.42 307.58,-6.42 308.06,-6.41 304.60,-9.67 300.35,-9.60 300.35,9.60 302.67,8.77 304.06,7.23 304.99,6.64">
        <request index="0" response="000000" foes="000000" cont="0"/>
        <request index="1" response="000000" foes="000000" cont="0"/>
        <request index="2" response="000000" foes="000000" cont="0"/>
        <request index="3" response="000000" foes="000000" cont="0"/>
        <request index="4" response="000000" foes="000000" cont="0"/>
        <request index="5" response="000000" foes="000000" cont="0"/>
    </junction>
    <junction id="J5" type="dead_end" x="400.00" y="0.00" incLanes="E2_0 E2_1" intLanes="" shape="400.00,0.00 400.00,-6.40 400.00,0.00"/>
    <junction id="J6" type="dead_end" x="-100.00" y="-100.00" incLanes="" intLanes="" shape="-100.00,-100.00 -97.33,-101.76"/>
    <junction id="J7" type="dead_end" x="400.00" y="-100.00" incLanes="E6_0" intLanes="" shape="397.54,-102.05 400.00,-100.00"/>
    <junction id="J8" type="dead_end" x="300.00" y="100.00" incLanes="" intLanes="" shape="300.00,100.00 297.41,101.87"/>
    <junction id="J9" type="dead_end" x="0.00" y="100.00" incLanes="E8_0" intLanes="" shape="2.57,101.90 0.00,100.00"/>

    <connection from="-E1" to="E8" fromLane="0" toLane="0" pass="1" via=":J2_0_0" dir="R" state="M"/>
    <connection from="-E1" to="-E4" fromLane="0" toLane="0" via=":J2_1_0" dir="s" state="M"/>
    <connection from="-E1" to="-E4" fromLane="1" toLane="1" via=":J2_1_1" dir="s" state="M"/>
    <connection from="-E1" to="-E4" fromLane="2" toLane="2" via=":J2_1_2" dir="s" state="M"/>
    <connection from="-E2" to="-E3" fromLane="0" toLane="0" via=":J4_0_0" dir="s" state="M"/>
    <connection from="-E2" to="-E3" fromLane="1" toLane="1" via=":J4_0_1" dir="s" state="M"/>
    <connection from="-E2" to="-E3" fromLane="1" toLane="2" via=":J4_0_2" dir="s" state="M"/>
    <connection from="-E3" to="-E1" fromLane="0" toLane="0" via=":J3_1_0" dir="s" state="M"/>
    <connection from="-E3" to="-E1" fromLane="1" toLane="1" via=":J3_1_1" dir="s" state="M"/>
    <connection from="-E3" to="-E1" fromLane="2" toLane="2" via=":J3_1_2" dir="s" state="M"/>
    <connection from="-E4" to="-E0" fromLane="0" toLane="0" via=":J1_0_0" dir="s" state="m"/>
    <connection from="-E4" to="-E0" fromLane="1" toLane="0" via=":J1_0_1" dir="s" state="M"/>
    <connection from="-E4" to="-E0" fromLane="2" toLane="1" via=":J1_0_2" dir="s" state="M"/>
    <connection from="E0" to="E4" fromLane="0" toLane="1" via=":J1_4_0" dir="s" state="M"/>
    <connection from="E0" to="E4" fromLane="1" toLane="2" via=":J1_4_1" dir="s" state="M"/>
    <connection from="E1" to="E3" fromLane="0" toLane="0" via=":J3_4_0" dir="s" state="M"/>
    <connection from="E1" to="E3" fromLane="1" toLane="1" via=":J3_4_1" dir="s" state="M"/>
    <connection from="E1" to="E3" fromLane="2" toLane="2" via=":J3_4_2" dir="s" state="M"/>
    <connection from="E3" to="E6" fromLane="0" toLane="0" pass="1" via=":J4_3_0" dir="r" state="M"/>
    <connection from="E3" to="E2" fromLane="1" toLane="0" via=":J4_4_0" dir="s" state="M"/>
    <connection from="E3" to="E2" fromLane="2" toLane="1" via=":J4_4_1" dir="s" state="M"/>
    <connection from="E4" to="E1" fromLane="0" toLane="0" via=":J2_4_0" dir="s" state="M"/>
    <connection from="E4" to="E1" fromLane="1" toLane="1" via=":J2_4_1" dir="s" state="M"/>
    <connection from="E4" to="E1" fromLane="2" toLane="2" via=":J2_4_2" dir="s" state="M"/>
    <connection from="E5" to="E4" fromLane="0" toLane="0" via=":J1_3_0" dir="s" state="M"/>
    <connection from="E7" to="-E1" fromLane="0" toLane="0" via=":J3_0_0" dir="s" state="m"/>

    <connection from=":J1_0" to="-E0" fromLane="0" toLane="0" dir="s" state="M"/>
    <connection from=":J1_0" to="-E0" fromLane="1" toLane="0" dir="s" state="M"/>
    <connection from=":J1_0" to="-E0" fromLane="2" toLane="1" dir="s" state="M"/>
    <connection from=":J1_3" to="E4" fromLane="0" toLane="0" dir="s" state="M"/>
    <connection from=":J1_4" to="E4" fromLane="0" toLane="1" dir="s" state="M"/>
    <connection from=":J1_4" to="E4" fromLane="1" toLane="2" dir="s" state="M"/>
    <connection from=":J2_0" to="E8" fromLane="0" toLane="0" dir="R" state="M"/>
    <connection from=":J2_1" to="-E4" fromLane="0" toLane="0" dir="s" state="M"/>
    <connection from=":J2_1" to="-E4" fromLane="1" toLane="1" dir="s" state="M"/>
    <connection from=":J2_1" to="-E4" fromLane="2" toLane="2" dir="s" state="M"/>
    <connection from=":J2_4" to="E1" fromLane="0" toLane="0" dir="s" state="M"/>
    <connection from=":J2_4" to="E1" fromLane="1" toLane="1" dir="s" state="M"/>
    <connection from=":J2_4" to="E1" fromLane="2" toLane="2" dir="s" state="M"/>
    <connection from=":J3_0" to="-E1" fromLane="0" toLane="0" dir="s" state="M"/>
    <connection from=":J3_1" to="-E1" fromLane="0" toLane="0" dir="s" state="M"/>
    <connection from=":J3_1" to="-E1" fromLane="1" toLane="1" dir="s" state="M"/>
    <connection from=":J3_1" to="-E1" fromLane="2" toLane="2" dir="s" state="M"/>
    <connection from=":J3_4" to="E3" fromLane="0" toLane="0" dir="s" state="M"/>
    <connection from=":J3_4" to="E3" fromLane="1" toLane="1" dir="s" state="M"/>
    <connection from=":J3_4" to="E3" fromLane="2" toLane="2" dir="s" state="M"/>
    <connection from=":J4_0" to="-E3" fromLane="0" toLane="0" dir="s" state="M"/>
    <connection from=":J4_0" to="-E3" fromLane="1" toLane="1" dir="s" state="M"/>
    <connection from=":J4_0" to="-E3" fromLane="2" toLane="2" dir="s" state="M"/>
    <connection from=":J4_3" to="E6" fromLane="0" toLane="0" dir="r" state="M"/>
    <connection from=":J4_4" to="E2" fromLane="0" toLane="0" dir="s" state="M"/>
    <connection from=":J4_4" to="E2" fromLane="1" toLane="1" dir="s" state="M"/>

</net>
