<?xml version="1.0" encoding="UTF-8"?>

<!-- generated on 2023-09-26 19:37:52 by Eclipse SUMO netedit Version 1.18.0
<configuration xmlns:xsi="http://www.w3.org/2001/XMLSchema-instance" xsi:noNamespaceSchemaLocation="http://sumo.dlr.de/xsd/neteditConfiguration.xsd">

    <input>
        <sumocfg-file value="/Users/sindhujach/Desktop/ECE 699/(No subject)/new.sumocfg"/>
        <route-files value="/Users/sindhujach/Desktop/ECE 699/(No subject)/new.rou.xml"/>
        <sumo-net-file value="/Users/sindhujach/Desktop/ECE 699/(No subject)/new.net.xml"/>
    </input>

    <output>
        <output-file value="/Users/sindhujach/Desktop/ECE 699/(No subject)/new.net.xml"/>
    </output>

    <processing>
        <geometry.min-radius.fix.railways value="false"/>
        <geometry.max-grade.fix value="false"/>
        <offset.disable-normalization value="true"/>
        <lefthand value="0"/>
    </processing>

    <junctions>
        <no-turnarounds value="true"/>
        <junctions.corner-detail value="5"/>
        <junctions.limit-turn-speed value="5.50"/>
        <rectangular-lane-cut value="0"/>
    </junctions>

    <pedestrian>
        <walkingareas value="0"/>
    </pedestrian>

</configuration>
-->

<net version="1.16" junctionCornerDetail="5" limitTurnSpeed="5.50" xmlns:xsi="http://www.w3.org/2001/XMLSchema-instance" xsi:noNamespaceSchemaLocation="http://sumo.dlr.de/xsd/net_file.xsd">

    <location netOffset="0.00,0.00" convBoundary="-300.00,-100.00,100.00,300.00" origBoundary="-10000000000.00,-10000000000.00,10000000000.00,10000000000.00" projParameter="!"/>

    <edge id=":J16_0" function="internal">
        <lane id=":J16_0_0" index="0" speed="4.72" length="7.01" shape="-300.00,101.60 -302.40,100.00 -303.20,98.40 -302.40,96.80 -300.00,95.20"/>
        <lane id=":J16_0_1" index="1" speed="3.65" length="7.01" shape="-300.00,101.60 -301.20,100.80 -301.60,100.00 -301.20,99.20 -300.00,98.40"/>
    </edge>
    <edge id=":J2_0" function="internal">
        <lane id=":J2_0_0" index="0" speed="6.76" length="9.50" shape="10.84,104.80 8.18,105.15 6.24,106.20 5.03,107.94 4.54,110.39"/>
        <lane id=":J2_0_1" index="1" speed="8.27" length="14.56" shape="10.84,101.60 6.87,102.15 3.97,103.79 2.12,106.54 1.34,110.37"/>
    </edge>
    <edge id=":J2_2" function="internal">
        <lane id=":J2_2_0" index="0" speed="6.52" length="9.06" shape="5.34,89.47 5.68,91.98 6.71,93.77 8.43,94.84 10.84,95.20"/>
        <lane id=":J2_2_1" index="1" speed="7.34" length="11.77" shape="5.34,89.47 5.68,93.38 6.71,96.17 8.43,97.84 10.84,98.40"/>
    </edge>
    <edge id=":J2_4" function="internal">
        <lane id=":J2_4_0" index="0" speed="13.89" length="21.06" shape="5.34,89.47 4.54,110.39"/>
        <lane id=":J2_4_1" index="1" speed="13.89" length="21.06" shape="2.14,89.20 1.34,110.37"/>
    </edge>
    <edge id=":J3_0" function="internal">
        <lane id=":J3_0_0" index="0" speed="6.76" length="9.46" shape="-104.80,210.85 -105.15,208.23 -106.20,206.31 -107.95,205.11 -110.40,204.61"/>
        <lane id=":J3_0_1" index="1" speed="8.25" length="14.56" shape="-101.60,210.85 -102.15,206.89 -103.80,203.99 -106.55,202.16 -110.40,201.40"/>
    </edge>
    <edge id=":J3_2" function="internal">
        <lane id=":J3_2_0" index="0" speed="6.45" length="9.07" shape="-89.48,205.41 -91.98,205.68 -93.77,206.68 -94.84,208.40 -95.20,210.85"/>
        <lane id=":J3_2_1" index="1" speed="7.27" length="11.83" shape="-89.48,205.41 -93.38,205.64 -96.17,206.62 -97.84,208.36 -98.40,210.85"/>
    </edge>
    <edge id=":J3_4" function="internal">
        <lane id=":J3_4_0" index="0" speed="13.89" length="21.06" shape="-89.48,205.41 -110.40,204.61"/>
        <lane id=":J3_4_1" index="1" speed="13.89" length="21.06" shape="-89.23,202.21 -110.40,201.40"/>
    </edge>
    <edge id=":J4_0" function="internal">
        <lane id=":J4_0_0" index="0" speed="6.78" length="9.27" shape="-210.48,95.20 -207.96,94.85 -206.11,93.81 -204.90,92.07 -204.35,89.64"/>
        <lane id=":J4_0_1" index="1" speed="8.27" length="14.30" shape="-210.48,98.40 -206.66,97.86 -203.83,96.23 -201.99,93.51 -201.15,89.71"/>
    </edge>
    <edge id=":J4_2" function="internal">
        <lane id=":J4_2_0" index="0" speed="6.59" length="9.05" shape="-204.81,110.44 -205.23,107.97 -206.32,106.21 -208.06,105.15 -210.48,104.80"/>
        <lane id=":J4_2_1" index="1" speed="7.40" length="11.70" shape="-204.81,110.44 -205.27,106.57 -206.37,103.81 -208.10,102.15 -210.48,101.60"/>
    </edge>
    <edge id=":J4_4" function="internal">
        <lane id=":J4_4_0" index="0" speed="13.89" length="20.83" shape="-204.81,110.44 -204.99,104.37 -205.00,100.03 -204.81,95.69 -204.35,89.64"/>
        <lane id=":J4_4_1" index="1" speed="13.89" length="20.83" shape="-201.61,110.52 -201.78,104.45 -201.80,100.10 -201.60,95.76 -201.15,89.71"/>
    </edge>
    <edge id=":J5_0" function="internal">
        <lane id=":J5_0_0" index="0" speed="6.81" length="8.73" shape="-95.20,-9.52 -94.89,-7.17 -93.94,-5.37 -92.37,-4.12 -90.16,-3.42"/>
        <lane id=":J5_0_1" index="1" speed="8.30" length="13.39" shape="-98.40,-9.52 -97.91,-5.96 -96.44,-3.22 -94.00,-1.32 -90.57,-0.25"/>
    </edge>
    <edge id=":J5_2" function="internal">
        <lane id=":J5_2_0" index="0" speed="6.64" length="8.53" shape="-109.93,-3.81 -107.69,-4.42 -106.08,-5.57 -105.12,-7.27 -104.80,-9.52"/>
        <lane id=":J5_2_1" index="1" speed="7.47" length="11.03" shape="-109.93,-3.81 -106.29,-4.57 -103.68,-5.78 -102.12,-7.43 -101.60,-9.52"/>
    </edge>
    <edge id=":J5_4" function="internal">
        <lane id=":J5_4_0" index="0" speed="13.89" length="19.57" shape="-109.93,-3.81 -104.08,-4.51 -100.03,-4.71 -95.99,-4.35 -90.16,-3.42"/>
        <lane id=":J5_4_1" index="1" speed="13.89" length="19.57" shape="-109.67,-0.62 -104.02,-1.30 -100.10,-1.48 -96.20,-1.14 -90.57,-0.25"/>
    </edge>

    <edge id="-E25" from="J3" to="J4" priority="-1" shape="-100.00,200.00 -102.05,200.00 -104.07,199.99 -106.08,199.95 -108.06,199.89 -110.03,199.82 -111.97,199.72 -113.89,199.60 -115.79,199.46 -117.67,199.31 -119.52,199.13 -121.36,198.93 -123.17,198.71 -124.97,198.47 -126.74,198.21 -128.49,197.93 -130.22,197.63 -131.93,197.31 -133.62,196.97 -135.28,196.61 -136.93,196.23 -138.55,195.83 -140.16,195.40 -141.74,194.96 -143.30,194.50 -144.84,194.02 -146.36,193.51 -147.85,192.99 -149.33,192.45 -150.78,191.88 -152.22,191.30 -153.63,190.69 -155.02,190.07 -156.39,189.42 -157.74,188.76 -159.07,188.07 -160.38,187.37 -161.66,186.64 -162.93,185.89 -164.17,185.13 -165.39,184.34 -166.59,183.53 -167.77,182.71 -168.93,181.86 -170.07,180.99 -171.19,180.10 -172.28,179.19 -173.35,178.26 -174.41,177.31 -175.44,176.34 -176.45,175.35 -177.44,174.34 -178.41,173.31 -179.35,172.26 -180.28,171.19 -181.19,170.10 -182.07,168.99 -182.93,167.86 -183.77,166.71 -184.59,165.53 -185.39,164.34 -186.17,163.13 -186.93,161.89 -187.66,160.64 -188.38,159.37 -189.07,158.07 -189.74,156.76 -190.39,155.42 -191.02,154.07 -191.63,152.69 -192.22,151.30 -192.78,149.88 -193.33,148.45 -193.85,146.99 -194.36,145.51 -194.84,144.02 -195.30,142.50 -195.74,140.96 -196.16,139.40 -196.55,137.83 -196.93,136.23 -197.28,134.61 -197.62,132.97 -197.93,131.31 -198.22,129.63 -198.49,127.93 -198.74,126.21 -198.97,124.47 -199.17,122.71 -199.36,120.93 -199.52,119.13 -199.67,117.31 -199.79,115.46 -199.89,113.60 -199.97,111.72 -200.03,109.82 -200.06,107.89 -200.08,105.95 -200.07,103.99 -200.05,102.00 -200.00,100.00">
        <lane id="-E25_0" index="0" speed="13.89" length="147.85" shape="-110.40,204.61 -112.24,204.51 -114.22,204.39 -116.16,204.25 -118.09,204.09 -120.01,203.90 -121.91,203.70 -123.78,203.47 -125.64,203.22 -127.47,202.95 -129.28,202.66 -131.07,202.35 -132.84,202.02 -134.60,201.67 -136.33,201.29 -138.04,200.90 -139.74,200.48 -141.42,200.03 -143.06,199.57 -144.69,199.09 -146.32,198.59 -147.91,198.05 -149.46,197.51 -151.03,196.94 -152.55,196.34 -154.07,195.73 -155.56,195.08 -157.03,194.43 -158.47,193.74 -159.90,193.05 -161.31,192.32 -162.70,191.57 -164.07,190.79 -165.40,190.00 -166.73,189.19 -168.04,188.34 -169.30,187.49 -170.56,186.62 -171.80,185.70 -173.02,184.78 -174.22,183.82 -175.39,182.84 -176.53,181.86 -177.66,180.84 -178.77,179.80 -179.84,178.74 -180.90,177.67 -181.95,176.56 -182.95,175.44 -183.93,174.30 -184.91,173.13 -185.86,171.93 -186.78,170.73 -187.68,169.50 -188.55,168.24 -189.40,166.98 -190.23,165.68 -191.05,164.35 -191.82,163.03 -192.59,161.68 -193.33,160.29 -194.04,158.90 -194.72,157.48 -195.39,156.06 -196.03,154.60 -196.66,153.12 -197.25,151.62 -197.83,150.12 -198.38,148.58 -198.91,147.03 -199.42,145.45 -199.90,143.85 -200.37,142.24 -200.81,140.60 -201.21,138.96 -201.61,137.29 -201.98,135.60 -202.33,133.90 -202.65,132.16 -202.96,130.41 -203.24,128.65 -203.49,126.87 -203.73,125.06 -203.94,123.24 -204.14,121.40 -204.30,119.54 -204.46,117.66 -204.58,115.74 -204.68,113.83 -204.77,111.90 -204.81,110.44"/>
        <lane id="-E25_1" index="1" speed="13.89" length="147.85" shape="-110.40,201.40 -112.06,201.32 -114.00,201.20 -115.91,201.06 -117.81,200.90 -119.68,200.72 -121.54,200.52 -123.37,200.30 -125.19,200.05 -126.98,199.79 -128.75,199.51 -130.50,199.20 -132.23,198.88 -133.95,198.54 -135.63,198.17 -137.30,197.79 -138.95,197.38 -140.58,196.94 -142.18,196.50 -143.76,196.03 -145.33,195.54 -146.88,195.02 -148.39,194.50 -149.90,193.95 -151.37,193.37 -152.84,192.78 -154.27,192.15 -155.69,191.52 -157.08,190.86 -158.46,190.19 -159.82,189.49 -161.15,188.77 -162.46,188.02 -163.75,187.26 -165.02,186.48 -166.27,185.67 -167.49,184.85 -168.70,184.01 -169.89,183.14 -171.05,182.25 -172.20,181.34 -173.32,180.41 -174.41,179.46 -175.49,178.49 -176.55,177.49 -177.58,176.48 -178.59,175.45 -179.59,174.39 -180.55,173.32 -181.50,172.23 -182.43,171.11 -183.33,169.97 -184.21,168.82 -185.07,167.64 -185.91,166.43 -186.73,165.22 -187.52,163.98 -188.30,162.71 -189.05,161.44 -189.78,160.14 -190.49,158.81 -191.17,157.47 -191.83,156.11 -192.48,154.73 -193.10,153.33 -193.70,151.91 -194.27,150.46 -194.83,149.01 -195.36,147.52 -195.88,146.02 -196.37,144.50 -196.83,142.95 -197.28,141.39 -197.71,139.80 -198.10,138.21 -198.49,136.58 -198.85,134.94 -199.19,133.28 -199.50,131.59 -199.80,129.89 -200.07,128.17 -200.32,126.43 -200.56,124.67 -200.76,122.89 -200.95,121.09 -201.11,119.27 -201.27,117.43 -201.39,115.55 -201.49,113.68 -201.57,111.78 -201.61,110.52"/>
    </edge>
    <edge id="-E29" from="J16" to="J4" priority="-1">
        <lane id="-E29_0" index="0" speed="13.89" length="89.52" shape="-300.00,95.20 -210.48,95.20"/>
        <lane id="-E29_1" index="1" speed="13.89" length="89.52" shape="-300.00,98.40 -210.48,98.40"/>
    </edge>
    <edge id="-E30" from="J10" to="J3" priority="-1">
        <lane id="-E30_0" index="0" speed="13.89" length="89.15" shape="-104.80,300.00 -104.80,210.85"/>
        <lane id="-E30_1" index="1" speed="13.89" length="89.15" shape="-101.60,300.00 -101.60,210.85"/>
    </edge>
    <edge id="-E31" from="J6" to="J2" priority="-1">
        <lane id="-E31_0" index="0" speed="13.89" length="89.16" shape="100.00,104.80 10.84,104.80"/>
        <lane id="-E31_1" index="1" speed="13.89" length="89.16" shape="100.00,101.60 10.84,101.60"/>
    </edge>
    <edge id="-E32" from="J13" to="J5" priority="-1">
        <lane id="-E32_0" index="0" speed="13.89" length="90.48" shape="-95.20,-100.00 -95.20,-9.52"/>
        <lane id="-E32_1" index="1" speed="13.89" length="90.48" shape="-98.40,-100.00 -98.40,-9.52"/>
    </edge>
    <edge id="E26" from="J2" to="J3" priority="-1" shape="0.00,100.00 -0.01,102.10 -0.05,104.18 -0.10,106.24 -0.17,108.28 -0.26,110.29 -0.49,114.25 -0.80,118.13 -1.19,121.91 -1.65,125.61 -2.18,129.21 -2.79,132.73 -3.47,136.16 -4.23,139.50 -5.07,142.75 -5.98,145.91 -6.96,148.99 -8.02,151.97 -9.16,154.87 -10.37,157.68 -11.65,160.39 -13.01,163.02 -14.45,165.56 58.81,206.96 -17.55,170.38 -19.21,172.66 -20.94,174.84 -22.75,176.94 -71.97,137.45 -24.64,178.95 -26.60,180.87 -28.63,182.70 -30.74,184.44 -32.93,186.09 -35.19,187.66 -37.53,189.13 -39.94,190.52 -42.42,191.82 -44.98,193.03 -47.62,194.15 -50.33,195.18 -53.12,196.12 -55.98,196.98 -58.91,197.74 -61.92,198.42 -65.01,199.01 -68.17,199.50 -71.41,199.91 -74.72,200.24 -78.11,200.47 -81.57,200.61 -85.10,200.67 -88.72,200.63 -92.40,200.51 -96.16,200.30 -100.00,200.00">
        <lane id="E26_0" index="0" speed="13.89" length="149.69" shape="4.54,110.39 4.53,110.55 4.30,114.58 3.98,118.57 3.58,122.45 3.11,126.26 2.56,129.97 1.93,133.61 1.22,137.16 0.43,140.63 -0.44,144.01 -1.39,147.30 -2.41,150.52 -3.52,153.65 -4.72,156.70 -5.99,159.65 -7.35,162.52 -8.79,165.31 -10.34,168.04 -13.59,173.09 -15.39,175.57 -17.24,177.90 -19.18,180.15 -21.21,182.31 -23.31,184.37 -25.49,186.34 -27.77,188.21 -30.12,189.98 -32.54,191.67 -35.05,193.24 -37.63,194.73 -40.28,196.12 -43.02,197.41 -45.83,198.60 -48.71,199.70 -51.66,200.69 -54.69,201.60 -57.78,202.40 -60.94,203.12 -64.19,203.74 -67.50,204.25 -70.87,204.68 -74.32,205.02 -77.85,205.26 -81.43,205.41 -85.09,205.47 -88.83,205.43 -89.48,205.41"/>
        <lane id="E26_1" index="1" speed="13.89" length="149.69" shape="1.34,110.37 1.11,114.36 0.79,118.28 0.40,122.09 -0.06,125.83 -0.60,129.46 -1.22,133.02 -1.91,136.49 -2.68,139.88 -3.53,143.17 -4.45,146.37 -5.44,149.50 -6.52,152.53 -7.68,155.48 -8.91,158.34 -10.22,161.10 -11.60,163.78 -13.08,166.39 -16.23,171.28 -17.94,173.63 -19.71,175.86 -21.56,178.01 -23.50,180.07 -25.50,182.04 -27.58,183.91 -29.75,185.70 -31.99,187.39 -34.31,189.00 -36.70,190.50 -39.17,191.92 -41.71,193.25 -44.33,194.49 -47.02,195.63 -49.79,196.69 -52.63,197.64 -55.55,198.52 -58.53,199.29 -61.59,199.99 -64.74,200.59 -67.95,201.08 -71.23,201.50 -74.59,201.83 -78.02,202.07 -81.52,202.21 -85.10,202.27 -88.76,202.23 -89.23,202.21"/>
    </edge>
    <edge id="E27" from="J4" to="J5" priority="-1" shape="-200.00,100.00 -199.96,98.05 -199.91,96.11 -199.83,94.20 -199.72,92.30 -199.60,90.43 -199.45,88.57 -199.28,86.73 -199.09,84.91 -198.88,83.11 -198.64,81.33 -198.39,79.57 -198.11,77.83 -197.81,76.10 -197.48,74.40 -197.14,72.72 -196.77,71.05 -196.38,69.40 -195.97,67.77 -195.53,66.17 -195.08,64.58 -194.60,63.01 -194.10,61.45 -193.58,59.92 -193.03,58.41 -192.47,56.92 -191.88,55.44 -191.27,53.99 -190.63,52.55 -189.98,51.13 -189.30,49.73 -188.60,48.35 -187.88,46.99 -187.14,45.65 -186.37,44.33 -185.58,43.03 -184.78,41.74 -183.94,40.48 -183.09,39.23 -182.21,38.01 -181.32,36.80 -180.40,35.61 -179.45,34.44 -178.49,33.29 -177.50,32.16 -176.49,31.05 -175.46,29.96 -174.41,28.88 -173.34,27.83 -172.24,26.80 -171.12,25.78 -169.98,24.78 -168.81,23.80 -167.63,22.85 -166.42,21.91 -165.19,20.99 -163.94,20.08 -162.67,19.20 -161.37,18.34 -160.05,17.50 -158.71,16.67 -157.35,15.86 -155.97,15.08 -154.56,14.31 -153.13,13.56 -151.68,12.83 -150.21,12.12 -148.71,11.43 -147.20,10.76 -145.66,10.11 -144.10,9.47 -142.51,8.86 -140.91,8.26 -139.28,7.69 -137.63,7.13 -135.96,6.59 -134.27,6.07 -132.55,5.57 -130.81,5.09 -129.05,4.63 -127.27,4.19 -125.47,3.76 -123.64,3.36 -121.79,2.98 -119.92,2.61 -118.03,2.26 -116.11,1.93 -114.18,1.63 -112.22,1.34 -110.24,1.07 -108.23,0.81 -106.21,0.58 -104.16,0.37 -102.09,0.17 -100.00,0.00">
        <lane id="E27_0" index="0" speed="13.89" length="143.91" shape="-204.35,89.64 -204.23,88.16 -204.06,86.26 -203.86,84.38 -203.64,82.51 -203.39,80.67 -203.14,78.85 -202.84,77.04 -202.53,75.23 -202.19,73.47 -201.84,71.72 -201.45,69.98 -201.04,68.26 -200.61,66.55 -200.15,64.88 -199.68,63.22 -199.18,61.58 -198.66,59.95 -198.11,58.33 -197.53,56.74 -196.95,55.19 -196.32,53.62 -195.68,52.08 -195.01,50.58 -194.32,49.08 -193.60,47.60 -192.86,46.14 -192.10,44.71 -191.31,43.28 -190.49,41.87 -189.67,40.52 -188.82,39.14 -187.92,37.80 -187.02,36.48 -186.09,35.18 -185.15,33.91 -184.16,32.63 -183.16,31.39 -182.14,30.17 -181.08,28.96 -180.01,27.79 -178.93,26.64 -177.81,25.49 -176.66,24.36 -175.50,23.27 -174.32,22.20 -173.10,21.14 -171.86,20.09 -170.61,19.08 -169.33,18.09 -168.04,17.13 -166.72,16.17 -165.36,15.23 -163.98,14.31 -162.60,13.43 -161.20,12.57 -159.76,11.71 -158.30,10.88 -156.83,10.08 -155.32,9.29 -153.80,8.53 -152.26,7.78 -150.69,7.06 -149.11,6.35 -147.50,5.68 -145.87,5.01 -144.21,4.37 -142.54,3.75 -140.84,3.15 -139.14,2.57 -137.40,2.01 -135.65,1.47 -133.86,0.95 -132.06,0.45 -130.23,-0.02 -128.40,-0.47 -126.54,-0.92 -124.64,-1.34 -122.74,-1.73 -120.82,-2.10 -118.87,-2.47 -116.89,-2.81 -114.90,-3.12 -112.90,-3.41 -110.87,-3.69 -109.93,-3.81"/>
        <lane id="E27_1" index="1" speed="13.89" length="143.91" shape="-201.15,89.71 -201.04,88.43 -200.87,86.57 -200.68,84.73 -200.47,82.91 -200.22,81.11 -199.97,79.33 -199.69,77.57 -199.38,75.81 -199.05,74.09 -198.71,72.39 -198.33,70.69 -197.93,69.02 -197.52,67.36 -197.07,65.74 -196.61,64.13 -196.13,62.53 -195.62,60.95 -195.09,59.39 -194.53,57.85 -193.96,56.34 -193.36,54.83 -192.74,53.35 -192.09,51.89 -191.43,50.45 -190.73,49.02 -190.02,47.61 -189.29,46.23 -188.53,44.86 -187.74,43.51 -186.94,42.19 -186.13,40.87 -185.27,39.59 -184.40,38.31 -183.50,37.07 -182.60,35.84 -181.65,34.62 -180.69,33.42 -179.71,32.25 -178.69,31.09 -177.66,29.96 -176.62,28.85 -175.54,27.75 -174.45,26.67 -173.33,25.62 -172.19,24.59 -171.02,23.57 -169.83,22.56 -168.62,21.59 -167.39,20.64 -166.14,19.70 -164.87,18.78 -163.57,17.88 -162.24,17.00 -160.90,16.14 -159.54,15.30 -158.15,14.48 -156.75,13.68 -155.32,12.90 -153.86,12.14 -152.39,11.40 -150.89,10.67 -149.37,9.97 -147.84,9.29 -146.27,8.63 -144.69,7.98 -143.08,7.36 -141.45,6.76 -139.80,6.18 -138.13,5.61 -136.44,5.06 -134.73,4.54 -132.99,4.03 -131.23,3.54 -129.44,3.08 -127.65,2.64 -125.83,2.20 -123.97,1.79 -122.11,1.41 -120.22,1.04 -118.31,0.68 -116.37,0.35 -114.42,0.05 -112.45,-0.24 -110.45,-0.52 -109.67,-0.62"/>
    </edge>
    <edge id="E28" from="J5" to="J2" priority="-1" shape="-100.00,0.00 -97.76,0.29 -95.55,0.60 -93.37,0.93 -91.21,1.27 -89.07,1.63 -86.96,2.00 -84.88,2.39 -82.82,2.79 -80.78,3.21 -78.77,3.65 -76.79,4.10 -74.83,4.57 -72.89,5.05 -70.98,5.55 -69.10,6.06 -67.24,6.59 -65.41,7.14 -63.60,7.70 -61.82,8.28 -60.06,8.87 -58.32,9.48 -56.62,10.11 -54.93,10.75 -53.28,11.40 -51.64,12.07 -50.04,12.76 -48.45,13.47 -46.90,14.18 -45.37,14.92 -43.86,15.67 -42.38,16.44 -40.92,17.22 -39.49,18.02 -38.08,18.83 -36.70,19.66 -35.35,20.50 -34.01,21.36 -32.71,22.24 -31.43,23.13 -30.17,24.04 -28.94,24.96 -27.74,25.90 -26.56,26.86 -25.40,27.83 -24.27,28.82 -23.17,29.82 -22.09,30.84 -21.03,31.87 -20.01,32.92 -19.00,33.98 -18.02,35.07 -17.07,36.16 -16.14,37.28 -15.24,38.40 -14.36,39.55 -13.51,40.71 -12.68,41.88 -11.88,43.07 -11.10,44.28 -10.35,45.50 -9.62,46.74 -8.92,48.00 -8.24,49.27 -7.59,50.55 -6.96,51.85 -6.36,53.17 -5.78,54.50 -5.23,55.85 -4.70,57.22 -4.20,58.60 -3.73,59.99 -3.28,61.40 -2.85,62.83 -2.45,64.27 -2.07,65.73 -1.72,67.21 -1.40,68.70 -1.10,70.20 -0.82,71.72 -0.58,73.26 -0.35,74.81 -0.15,76.38 0.02,77.97 0.17,79.57 0.30,81.18 0.39,82.82 0.47,84.46 0.52,86.13 0.54,87.81 0.54,89.50 0.51,91.21 0.46,92.94 0.38,94.68 0.28,96.44 0.15,98.21 0.00,100.00">
        <lane id="E28_0" index="0" speed="13.89" length="145.08" shape="-90.16,-3.42 -88.26,-3.10 -86.10,-2.72 -83.98,-2.32 -81.88,-1.92 -79.78,-1.49 -77.73,-1.03 -75.70,-0.57 -73.69,-0.09 -71.71,0.40 -69.74,0.91 -67.81,1.44 -65.89,1.98 -64.01,2.55 -62.15,3.13 -60.31,3.72 -58.50,4.33 -56.69,4.96 -54.94,5.62 -53.20,6.27 -51.49,6.95 -49.78,7.64 -48.11,8.36 -46.47,9.10 -44.86,9.84 -43.26,10.61 -41.68,11.39 -40.14,12.19 -38.62,13.01 -37.12,13.84 -35.65,14.69 -34.20,15.57 -32.79,16.44 -31.37,17.35 -29.99,18.28 -28.65,19.21 -27.33,20.17 -26.02,21.15 -24.75,22.15 -23.51,23.16 -22.28,24.18 -21.07,25.24 -19.91,26.30 -18.77,27.37 -17.64,28.48 -16.55,29.59 -15.48,30.72 -14.43,31.89 -13.41,33.05 -12.42,34.24 -11.46,35.44 -10.52,36.67 -9.62,37.90 -8.73,39.15 -7.87,40.43 -7.04,41.72 -6.24,43.03 -5.45,44.36 -4.71,45.70 -3.98,47.05 -3.29,48.42 -2.61,49.81 -1.98,51.22 -1.36,52.64 -0.77,54.08 -0.20,55.54 0.33,57.01 0.83,58.49 1.30,59.98 1.76,61.50 2.19,63.02 2.59,64.57 2.96,66.15 3.30,67.73 3.61,69.29 3.91,70.92 4.17,72.54 4.41,74.15 4.62,75.82 4.80,77.49 4.95,79.15 5.09,80.86 5.18,82.57 5.27,84.27 5.32,86.03 5.34,87.78 5.34,89.47"/>
        <lane id="E28_1" index="1" speed="13.89" length="145.08" shape="-90.57,-0.25 -88.80,0.05 -86.67,0.43 -84.58,0.82 -82.51,1.22 -80.45,1.64 -78.42,2.09 -76.43,2.54 -74.45,3.02 -72.50,3.50 -70.57,4.00 -68.67,4.52 -66.79,5.05 -64.94,5.61 -63.12,6.18 -61.32,6.76 -59.54,7.36 -57.78,7.97 -56.06,8.61 -54.35,9.26 -52.68,9.92 -51.02,10.59 -49.40,11.29 -47.79,12.01 -46.22,12.73 -44.67,13.48 -43.13,14.24 -41.63,15.02 -40.15,15.82 -38.70,16.63 -37.27,17.45 -35.87,18.30 -34.50,19.15 -33.13,20.02 -31.80,20.92 -30.50,21.82 -29.22,22.75 -27.97,23.69 -26.74,24.65 -25.54,25.63 -24.36,26.61 -23.20,27.63 -22.08,28.65 -20.98,29.68 -19.90,30.74 -18.86,31.81 -17.83,32.89 -16.82,34.01 -15.85,35.12 -14.90,36.27 -13.98,37.41 -13.08,38.59 -12.21,39.77 -11.36,40.97 -10.54,42.19 -9.75,43.43 -8.98,44.68 -8.23,45.95 -7.52,47.23 -6.82,48.53 -6.16,49.84 -5.51,51.17 -4.90,52.52 -4.31,53.88 -3.74,55.26 -3.20,56.66 -2.69,58.07 -2.21,59.49 -1.75,60.93 -1.31,62.39 -0.90,63.85 -0.52,65.34 -0.16,66.86 0.17,68.38 0.47,69.90 0.76,71.45 1.00,73.02 1.24,74.59 1.44,76.19 1.61,77.81 1.76,79.43 1.90,81.07 1.99,82.74 2.07,84.40 2.12,86.10 2.14,87.80 2.14,89.20"/>
    </edge>
    <edge id="E29" from="J4" to="J16" priority="-1">
        <lane id="E29_0" index="0" speed="13.89" length="89.52" shape="-210.48,104.80 -300.00,104.80"/>
        <lane id="E29_1" index="1" speed="13.89" length="89.52" shape="-210.48,101.60 -300.00,101.60"/>
    </edge>
    <edge id="E30" from="J3" to="J10" priority="-1">
        <lane id="E30_0" index="0" speed="13.89" length="89.15" shape="-95.20,210.85 -95.20,300.00"/>
        <lane id="E30_1" index="1" speed="13.89" length="89.15" shape="-98.40,210.85 -98.40,300.00"/>
    </edge>
    <edge id="E31" from="J2" to="J6" priority="-1">
        <lane id="E31_0" index="0" speed="13.89" length="89.16" shape="10.84,95.20 100.00,95.20"/>
        <lane id="E31_1" index="1" speed="13.89" length="89.16" shape="10.84,98.40 100.00,98.40"/>
    </edge>
    <edge id="E32" from="J5" to="J13" priority="-1">
        <lane id="E32_0" index="0" speed="13.89" length="90.48" shape="-104.80,-9.52 -104.80,-100.00"/>
        <lane id="E32_1" index="1" speed="13.89" length="90.48" shape="-101.60,-9.52 -101.60,-100.00"/>
    </edge>

    <junction id="J10" type="dead_end" x="-100.00" y="300.00" incLanes="E30_0 E30_1" intLanes="" shape="-100.00,300.00 -93.60,300.00 -100.00,300.00"/>
    <junction id="J13" type="dead_end" x="-100.00" y="-100.00" incLanes="E32_0 E32_1" intLanes="" shape="-100.00,-100.00 -106.40,-100.00 -100.00,-100.00"/>
    <junction id="J16" type="priority" x="-300.00" y="100.00" incLanes="E29_0 E29_1" intLanes=":J16_0_0 :J16_0_1" shape="-300.00,100.00 -300.00,106.40 -300.00,100.00">
        <request index="0" response="00" foes="00" cont="0"/>
        <request index="1" response="00" foes="00" cont="0"/>
    </junction>
    <junction id="J2" type="priority" x="0.00" y="100.00" incLanes="-E31_0 -E31_1 E28_0 E28_1" intLanes=":J2_0_0 :J2_0_1 :J2_2_0 :J2_2_1 :J2_4_0 :J2_4_1" shape="10.84,106.40 10.84,93.60 8.67,93.15 7.91,92.59 7.37,91.80 7.05,90.79 6.94,89.60 0.54,89.07 -0.26,110.37 6.14,110.40 6.74,108.18 7.40,107.40 8.31,106.84 9.45,106.51">
        <request index="0" response="000000" foes="110000" cont="0"/>
        <request index="1" response="000000" foes="110000" cont="0"/>
        <request index="2" response="000000" foes="000000" cont="0"/>
        <request index="3" response="000000" foes="000000" cont="0"/>
        <request index="4" response="000011" foes="000011" cont="0"/>
        <request index="5" response="000011" foes="000011" cont="0"/>
    </junction>
    <junction id="J3" type="priority" x="-100.00" y="200.00" incLanes="-E30_0 -E30_1 E26_0 E26_1" intLanes=":J3_0_0 :J3_0_1 :J3_2_0 :J3_2_1 :J3_4_0 :J3_4_1" shape="-106.40,210.85 -93.60,210.85 -93.16,208.66 -92.60,207.90 -91.82,207.37 -90.82,207.07 -89.60,207.00 -89.10,200.62 -110.40,199.80 -110.40,206.21 -108.14,206.82 -107.38,207.47 -106.83,208.36 -106.51,209.49">
        <request index="0" response="000000" foes="110000" cont="0"/>
        <request index="1" response="000000" foes="110000" cont="0"/>
        <request index="2" response="000000" foes="000000" cont="0"/>
        <request index="3" response="000000" foes="000000" cont="0"/>
        <request index="4" response="000011" foes="000011" cont="0"/>
        <request index="5" response="000011" foes="000011" cont="0"/>
    </junction>
    <junction id="J4" type="priority" x="-200.00" y="100.00" incLanes="-E29_0 -E29_1 -E25_0 -E25_1" intLanes=":J4_0_0 :J4_0_1 :J4_2_0 :J4_2_1 :J4_4_0 :J4_4_1" shape="-199.54,89.74 -205.95,89.61 -206.60,91.83 -207.25,92.60 -208.11,93.16 -209.18,93.49 -210.48,93.60 -210.48,106.40 -208.28,106.84 -207.49,107.40 -206.92,108.18 -206.56,109.18 -206.41,110.40 -200.01,110.56 -200.14,106.12 -200.22,102.84 -200.21,100.14 -200.11,97.44 -199.89,94.16">
        <request index="0" response="000000" foes="110000" cont="0"/>
        <request index="1" response="000000" foes="110000" cont="0"/>
        <request index="2" response="000000" foes="000000" cont="0"/>
        <request index="3" response="000000" foes="000000" cont="0"/>
        <request index="4" response="000011" foes="000011" cont="0"/>
        <request index="5" response="000011" foes="000011" cont="0"/>
    </junction>
    <junction id="J5" type="priority" x="-100.00" y="0.00" incLanes="-E32_0 -E32_1 E27_0 E27_1" intLanes=":J5_0_0 :J5_0_1 :J5_2_0 :J5_2_1 :J5_4_0 :J5_4_1" shape="-90.78,1.34 -89.96,-5.01 -91.98,-5.78 -92.69,-6.44 -93.20,-7.29 -93.50,-8.31 -93.60,-9.52 -106.40,-9.52 -106.81,-7.45 -107.32,-6.67 -108.03,-6.07 -108.94,-5.65 -110.06,-5.41 -109.54,0.98 -105.56,0.48 -102.60,0.19 -100.14,0.13 -97.69,0.29 -94.74,0.69">
        <request index="0" response="000000" foes="110000" cont="0"/>
        <request index="1" response="000000" foes="110000" cont="0"/>
        <request index="2" response="000000" foes="000000" cont="0"/>
        <request index="3" response="000000" foes="000000" cont="0"/>
        <request index="4" response="000011" foes="000011" cont="0"/>
        <request index="5" response="000011" foes="000011" cont="0"/>
    </junction>
    <junction id="J6" type="dead_end" x="100.00" y="100.00" incLanes="E31_0 E31_1" intLanes="" shape="100.00,100.00 100.00,93.60 100.00,100.00"/>

    <connection from="-E25" to="E29" fromLane="0" toLane="0" via=":J4_2_0" dir="r" state="M"/>
    <connection from="-E25" to="E29" fromLane="0" toLane="1" via=":J4_2_1" dir="r" state="M"/>
    <connection from="-E25" to="E27" fromLane="0" toLane="0" via=":J4_4_0" dir="s" state="m"/>
    <connection from="-E25" to="E27" fromLane="1" toLane="1" via=":J4_4_1" dir="s" state="m"/>
    <connection from="-E29" to="E27" fromLane="0" toLane="0" via=":J4_0_0" dir="r" state="M"/>
    <connection from="-E29" to="E27" fromLane="1" toLane="1" pass="1" via=":J4_0_1" dir="r" state="M"/>
    <connection from="-E30" to="-E25" fromLane="0" toLane="0" via=":J3_0_0" dir="r" state="M"/>
    <connection from="-E30" to="-E25" fromLane="1" toLane="1" via=":J3_0_1" dir="r" state="M"/>
    <connection from="-E31" to="E26" fromLane="0" toLane="0" via=":J2_0_0" dir="r" state="M"/>
    <connection from="-E31" to="E26" fromLane="1" toLane="1" via=":J2_0_1" dir="r" state="M"/>
    <connection from="-E32" to="E28" fromLane="0" toLane="0" via=":J5_0_0" dir="r" state="M"/>
    <connection from="-E32" to="E28" fromLane="1" toLane="1" pass="1" via=":J5_0_1" dir="r" state="M"/>
    <connection from="E26" to="E30" fromLane="0" toLane="0" via=":J3_2_0" dir="r" state="M"/>
    <connection from="E26" to="E30" fromLane="0" toLane="1" via=":J3_2_1" dir="r" state="M"/>
    <connection from="E26" to="-E25" fromLane="0" toLane="0" via=":J3_4_0" dir="s" state="m"/>
    <connection from="E26" to="-E25" fromLane="1" toLane="1" via=":J3_4_1" dir="s" state="m"/>
    <connection from="E27" to="E32" fromLane="0" toLane="0" via=":J5_2_0" dir="r" state="M"/>
    <connection from="E27" to="E32" fromLane="0" toLane="1" via=":J5_2_1" dir="r" state="M"/>
    <connection from="E27" to="E28" fromLane="0" toLane="0" via=":J5_4_0" dir="s" state="m"/>
    <connection from="E27" to="E28" fromLane="1" toLane="1" via=":J5_4_1" dir="s" state="m"/>
    <connection from="E28" to="E31" fromLane="0" toLane="0" via=":J2_2_0" dir="r" state="M"/>
    <connection from="E28" to="E31" fromLane="0" toLane="1" via=":J2_2_1" dir="r" state="M"/>
    <connection from="E28" to="E26" fromLane="0" toLane="0" via=":J2_4_0" dir="s" state="m"/>
    <connection from="E28" to="E26" fromLane="1" toLane="1" via=":J2_4_1" dir="s" state="m"/>
    <connection from="E29" to="-E29" fromLane="1" toLane="0" via=":J16_0_0" dir="t" state="M"/>
    <connection from="E29" to="-E29" fromLane="1" toLane="1" via=":J16_0_1" dir="t" state="M"/>

    <connection from=":J16_0" to="-E29" fromLane="0" toLane="0" dir="t" state="M"/>
    <connection from=":J16_0" to="-E29" fromLane="1" toLane="1" dir="t" state="M"/>
    <connection from=":J2_0" to="E26" fromLane="0" toLane="0" dir="r" state="M"/>
    <connection from=":J2_0" to="E26" fromLane="1" toLane="1" dir="r" state="M"/>
    <connection from=":J2_2" to="E31" fromLane="0" toLane="0" dir="r" state="M"/>
    <connection from=":J2_2" to="E31" fromLane="1" toLane="1" dir="r" state="M"/>
    <connection from=":J2_4" to="E26" fromLane="0" toLane="0" dir="s" state="M"/>
    <connection from=":J2_4" to="E26" fromLane="1" toLane="1" dir="s" state="M"/>
    <connection from=":J3_0" to="-E25" fromLane="0" toLane="0" dir="r" state="M"/>
    <connection from=":J3_0" to="-E25" fromLane="1" toLane="1" dir="r" state="M"/>
    <connection from=":J3_2" to="E30" fromLane="0" toLane="0" dir="r" state="M"/>
    <connection from=":J3_2" to="E30" fromLane="1" toLane="1" dir="r" state="M"/>
    <connection from=":J3_4" to="-E25" fromLane="0" toLane="0" dir="s" state="M"/>
    <connection from=":J3_4" to="-E25" fromLane="1" toLane="1" dir="s" state="M"/>
    <connection from=":J4_0" to="E27" fromLane="0" toLane="0" dir="r" state="M"/>